<?xml version="1.0" encoding="UTF-8"?>

<!-- generated on 2024-12-09 18:15:09.477628 by osmWebWizard.py v1_21_0+0000-d7b3b481c43
<configuration>
    <net-file value="C:\Users\salar\Sumo\2024-12-09-18-14-24\osm.net.xml.gz"/>
    <output-trip-file value="C:\Users\salar\Sumo\2024-12-09-18-14-24\osm.motorcycle.trips.xml"/>
    <route-file value="C:\Users\salar\Sumo\2024-12-09-18-14-24\osm.motorcycle.rou.xml"/>
    <prefix value="motorcycle"/>
    <trip-attributes value="departLane=&quot;best&quot;"/>
    <fringe-start-attributes value="departSpeed=&quot;max&quot;"/>
    <vehicle-class value="motorcycle"/>
    <fringe-factor value="2"/>
    <vclass value="motorcycle"/>
    <via-edge-types value="highway.motorway,highway.motorway_link,highway.trunk_link,highway.primary_link,highway.secondary_link,highway.tertiary_link"/>
    <max-distance value="1200.0"/>
    <remove-loops value="True"/>
    <validate value="True"/>
    <insertion-density value="199.0"/>
</configuration>
-->

<!-- generated on 2024-12-09 18:15:03 by Eclipse SUMO duarouter Version 1.21.0
<duarouterConfiguration xmlns:xsi="http://www.w3.org/2001/XMLSchema-instance" xsi:noNamespaceSchemaLocation="http://sumo.dlr.de/xsd/duarouterConfiguration.xsd">

    <input>
        <net-file value="C:\Users\salar\Sumo\2024-12-09-18-14-24\osm.net.xml.gz"/>
        <route-files value="C:\Users\salar\Sumo\2024-12-09-18-14-24\osm.motorcycle.trips.xml"/>
    </input>

    <output>
        <output-file value="C:\Users\salar\Sumo\2024-12-09-18-14-24\osm.motorcycle.trips.xml.tmp"/>
        <alternatives-output value="NUL"/>
        <write-trips value="true"/>
    </output>

    <processing>
        <remove-loops value="true"/>
    </processing>

    <time>
        <begin value="0.0"/>
        <end value="3600.0"/>
    </time>

    <report>
        <no-warnings value="true"/>
        <ignore-errors value="true"/>
        <no-step-log value="true"/>
    </report>

</duarouterConfiguration>
-->

<routes xmlns:xsi="http://www.w3.org/2001/XMLSchema-instance" xsi:noNamespaceSchemaLocation="http://sumo.dlr.de/xsd/routes_file.xsd">
    <vType id="motorcycle_motorcycle" vClass="motorcycle"/>
    <trip id="motorcycle0" type="motorcycle_motorcycle" depart="0.00" departLane="best" from="23525557#2" to="-208837098#0"/>
    <trip id="motorcycle1" type="motorcycle_motorcycle" depart="0.15" departLane="best" from="321137970#5" to="25515185#7"/>
    <trip id="motorcycle2" type="motorcycle_motorcycle" depart="0.29" departLane="best" from="707873036#5" to="-23069862#4"/>
    <trip id="motorcycle3" type="motorcycle_motorcycle" depart="0.44" departLane="best" from="-833357413#0" to="208837100#1"/>
    <trip id="motorcycle4" type="motorcycle_motorcycle" depart="0.59" departLane="best" from="321138545#4" to="208837098#5"/>
    <trip id="motorcycle5" type="motorcycle_motorcycle" depart="0.73" departLane="best" from="23525594#8" to="210551738#12"/>
    <trip id="motorcycle6" type="motorcycle_motorcycle" depart="0.88" departLane="best" from="-321138545#9" to="-23074254#5"/>
    <trip id="motorcycle7" type="motorcycle_motorcycle" depart="1.03" departLane="best" from="-444137814#22" to="-1113174357#0"/>
    <trip id="motorcycle8" type="motorcycle_motorcycle" depart="1.17" departLane="best" departSpeed="max" from="-707873035" to="-23525699#1"/>
    <trip id="motorcycle9" type="motorcycle_motorcycle" depart="1.32" departLane="best" departSpeed="max" from="833357417" to="-647888634"/>
    <trip id="motorcycle10" type="motorcycle_motorcycle" depart="1.46" departLane="best" from="23074249#1" to="-23276636#0"/>
    <trip id="motorcycle11" type="motorcycle_motorcycle" depart="1.61" departLane="best" from="618898635" to="23285864#1"/>
    <trip id="motorcycle12" type="motorcycle_motorcycle" depart="1.76" departLane="best" departSpeed="max" from="208856050" to="834052502#1"/>
    <trip id="motorcycle13" type="motorcycle_motorcycle" depart="1.90" departLane="best" from="260145040#3" to="-208855893#0"/>
    <trip id="motorcycle14" type="motorcycle_motorcycle" depart="2.05" departLane="best" from="-23525326#1" to="-716757907#0"/>
    <trip id="motorcycle15" type="motorcycle_motorcycle" depart="2.20" departLane="best" from="742032244#0" to="-321137975#21"/>
    <trip id="motorcycle16" type="motorcycle_motorcycle" depart="2.34" departLane="best" from="444137814#9" to="817879001#0"/>
    <trip id="motorcycle17" type="motorcycle_motorcycle" depart="2.49" departLane="best" from="23525594#4" to="-23525187"/>
    <trip id="motorcycle18" type="motorcycle_motorcycle" depart="2.64" departLane="best" from="-263935807#1" to="321137980#1"/>
    <trip id="motorcycle19" type="motorcycle_motorcycle" depart="2.78" departLane="best" from="260145043#1" to="-742032244#3"/>
    <trip id="motorcycle20" type="motorcycle_motorcycle" depart="2.93" departLane="best" from="210551738#16" to="263935513#3"/>
    <trip id="motorcycle21" type="motorcycle_motorcycle" depart="3.08" departLane="best" departSpeed="max" from="618898622#0" to="337234314#2"/>
    <trip id="motorcycle22" type="motorcycle_motorcycle" depart="3.22" departLane="best" departSpeed="max" from="-321138549#2" to="-208837100#6"/>
    <trip id="motorcycle23" type="motorcycle_motorcycle" depart="3.37" departLane="best" from="647888636#0" to="-618898653#0"/>
    <trip id="motorcycle24" type="motorcycle_motorcycle" depart="3.52" departLane="best" from="23525675#2" to="-817878988#2"/>
    <trip id="motorcycle25" type="motorcycle_motorcycle" depart="3.66" departLane="best" from="742032235" to="983655231#1"/>
    <trip id="motorcycle26" type="motorcycle_motorcycle" depart="3.81" departLane="best" from="-444137814#29" to="-321138565#4"/>
    <trip id="motorcycle27" type="motorcycle_motorcycle" depart="3.96" departLane="best" from="210551738#7" to="-337234314#4"/>
    <trip id="motorcycle28" type="motorcycle_motorcycle" depart="4.10" departLane="best" from="-23069862#1" to="-208855895#0"/>
    <trip id="motorcycle29" type="motorcycle_motorcycle" depart="4.25" departLane="best" from="23285735#1" to="23525594#2"/>
    <trip id="motorcycle30" type="motorcycle_motorcycle" depart="4.39" departLane="best" departSpeed="max" from="337234310#0" to="833357424#0"/>
    <trip id="motorcycle31" type="motorcycle_motorcycle" depart="4.54" departLane="best" from="-208856390#1" to="-742032248#1"/>
    <trip id="motorcycle32" type="motorcycle_motorcycle" depart="4.69" departLane="best" departSpeed="max" from="941556496" to="208856390#0"/>
    <trip id="motorcycle33" type="motorcycle_motorcycle" depart="4.83" departLane="best" from="833357434" to="698104774#5"/>
    <trip id="motorcycle34" type="motorcycle_motorcycle" depart="4.98" departLane="best" departSpeed="max" from="-1113174357#1" to="321137975#17"/>
    <trip id="motorcycle35" type="motorcycle_motorcycle" depart="5.13" departLane="best" from="23627931#11" to="210372641"/>
    <trip id="motorcycle36" type="motorcycle_motorcycle" depart="5.27" departLane="best" from="444137814#7" to="23525682#0"/>
    <trip id="motorcycle37" type="motorcycle_motorcycle" depart="5.42" departLane="best" departSpeed="max" from="-23285857#2" to="-833357440"/>
    <trip id="motorcycle38" type="motorcycle_motorcycle" depart="5.57" departLane="best" from="-837265370#0" to="833357422"/>
    <trip id="motorcycle40" type="motorcycle_motorcycle" depart="5.86" departLane="best" from="208827150#5" to="-263935658#1"/>
    <trip id="motorcycle41" type="motorcycle_motorcycle" depart="6.01" departLane="best" from="733891187#1" to="707873040#3"/>
    <trip id="motorcycle42" type="motorcycle_motorcycle" depart="6.15" departLane="best" from="321137986#2" to="210551736#13"/>
    <trip id="motorcycle43" type="motorcycle_motorcycle" depart="6.30" departLane="best" from="208856390#1" to="208856390#2"/>
    <trip id="motorcycle44" type="motorcycle_motorcycle" depart="6.45" departLane="best" departSpeed="max" from="-1120792377" to="817878992"/>
    <trip id="motorcycle45" type="motorcycle_motorcycle" depart="6.59" departLane="best" from="647888638#1" to="-618898659#3"/>
    <trip id="motorcycle46" type="motorcycle_motorcycle" depart="6.74" departLane="best" from="-618898659#1" to="-208856391#1"/>
    <trip id="motorcycle47" type="motorcycle_motorcycle" depart="6.89" departLane="best" from="647888638#0" to="833357413#1"/>
    <trip id="motorcycle48" type="motorcycle_motorcycle" depart="7.03" departLane="best" from="-22742466#3" to="1152339622"/>
    <trip id="motorcycle49" type="motorcycle_motorcycle" depart="7.18" departLane="best" from="208966902#6" to="-321138567#1"/>
    <trip id="motorcycle50" type="motorcycle_motorcycle" depart="7.32" departLane="best" from="444137814#3" to="707873044#0"/>
    <trip id="motorcycle51" type="motorcycle_motorcycle" depart="7.47" departLane="best" from="-833357414" to="-321137975#5"/>
    <trip id="motorcycle52" type="motorcycle_motorcycle" depart="7.62" departLane="best" from="208856390#1" to="-321137982#1"/>
    <trip id="motorcycle53" type="motorcycle_motorcycle" depart="7.76" departLane="best" from="321137975#3" to="-618898647#0"/>
    <trip id="motorcycle54" type="motorcycle_motorcycle" depart="7.91" departLane="best" departSpeed="max" from="892424161" to="23525738#1"/>
    <trip id="motorcycle55" type="motorcycle_motorcycle" depart="8.06" departLane="best" from="833357438#0" to="208838651#3"/>
    <trip id="motorcycle56" type="motorcycle_motorcycle" depart="8.20" departLane="best" from="-698104774#3" to="-23074254#3"/>
    <trip id="motorcycle58" type="motorcycle_motorcycle" depart="8.50" departLane="best" from="-210372641" to="23525594#9"/>
    <trip id="motorcycle59" type="motorcycle_motorcycle" depart="8.64" departLane="best" from="-321138549#1" to="751319147"/>
    <trip id="motorcycle60" type="motorcycle_motorcycle" depart="8.79" departLane="best" from="618898659#0" to="22575354#4"/>
    <trip id="motorcycle61" type="motorcycle_motorcycle" depart="8.94" departLane="best" from="817878986" to="22742466#5"/>
    <trip id="motorcycle62" type="motorcycle_motorcycle" depart="9.08" departLane="best" departSpeed="max" from="-983655223" to="-444137814#2"/>
    <trip id="motorcycle63" type="motorcycle_motorcycle" depart="9.23" departLane="best" from="444137814#18" to="-28463098#1"/>
    <trip id="motorcycle64" type="motorcycle_motorcycle" depart="9.38" departLane="best" from="-23074254#0" to="-833357436#0"/>
    <trip id="motorcycle65" type="motorcycle_motorcycle" depart="9.52" departLane="best" from="28485681#6" to="25515185#11"/>
    <trip id="motorcycle66" type="motorcycle_motorcycle" depart="9.67" departLane="best" from="633827324" to="321140389#0"/>
    <trip id="motorcycle67" type="motorcycle_motorcycle" depart="9.82" departLane="best" from="-321137971#6" to="-837265387#3"/>
    <trip id="motorcycle68" type="motorcycle_motorcycle" depart="9.96" departLane="best" from="337234313#0" to="817878987#0"/>
    <trip id="motorcycle69" type="motorcycle_motorcycle" depart="10.11" departLane="best" from="210551736#4" to="-208855900#1"/>
    <trip id="motorcycle70" type="motorcycle_motorcycle" depart="10.25" departLane="best" from="833357431#0" to="817878989#2"/>
    <trip id="motorcycle71" type="motorcycle_motorcycle" depart="10.40" departLane="best" from="-618898640#0" to="-23581305#0"/>
    <trip id="motorcycle72" type="motorcycle_motorcycle" depart="10.55" departLane="best" from="817878989#2" to="208966902#10"/>
    <trip id="motorcycle73" type="motorcycle_motorcycle" depart="10.69" departLane="best" from="444137814#3" to="444137814#19"/>
    <trip id="motorcycle74" type="motorcycle_motorcycle" depart="10.84" departLane="best" from="-837265380#0" to="-833357425"/>
    <trip id="motorcycle75" type="motorcycle_motorcycle" depart="10.99" departLane="best" departSpeed="max" from="833357417" to="983655223"/>
    <trip id="motorcycle76" type="motorcycle_motorcycle" depart="11.13" departLane="best" from="23525751" to="-453659337"/>
    <trip id="motorcycle77" type="motorcycle_motorcycle" depart="11.28" departLane="best" from="833357431#0" to="23069187#4"/>
    <trip id="motorcycle78" type="motorcycle_motorcycle" depart="11.43" departLane="best" from="208966902#12" to="321138546#7"/>
    <trip id="motorcycle79" type="motorcycle_motorcycle" depart="11.57" departLane="best" from="208855895#1" to="-23074249#2"/>
    <trip id="motorcycle80" type="motorcycle_motorcycle" depart="11.72" departLane="best" from="208827154#0" to="647888643#0"/>
    <trip id="motorcycle81" type="motorcycle_motorcycle" depart="11.87" departLane="best" from="719013035" to="-23525200"/>
    <trip id="motorcycle82" type="motorcycle_motorcycle" depart="12.01" departLane="best" from="707873036#1" to="-321138565#3"/>
    <trip id="motorcycle83" type="motorcycle_motorcycle" depart="12.16" departLane="best" departSpeed="max" from="23074249#0" to="23525557#1"/>
    <trip id="motorcycle84" type="motorcycle_motorcycle" depart="12.31" departLane="best" departSpeed="max" from="-833356747#1" to="23074249#12"/>
    <trip id="motorcycle85" type="motorcycle_motorcycle" depart="12.45" departLane="best" from="208837108#1" to="817878998"/>
    <trip id="motorcycle86" type="motorcycle_motorcycle" depart="12.60" departLane="best" from="-321137978#1" to="321137973#0"/>
    <trip id="motorcycle87" type="motorcycle_motorcycle" depart="12.75" departLane="best" from="23525731" to="618889950"/>
    <trip id="motorcycle88" type="motorcycle_motorcycle" depart="12.89" departLane="best" from="-633827345" to="321138549#1"/>
    <trip id="motorcycle89" type="motorcycle_motorcycle" depart="13.04" departLane="best" from="-22575354#10" to="323406159#1"/>
    <trip id="motorcycle90" type="motorcycle_motorcycle" depart="13.18" departLane="best" from="-983655231#1" to="983655223"/>
    <trip id="motorcycle91" type="motorcycle_motorcycle" depart="13.33" departLane="best" from="444137814#3" to="817878997#1"/>
    <trip id="motorcycle92" type="motorcycle_motorcycle" depart="13.48" departLane="best" from="-647888640#0" to="715543511"/>
    <trip id="motorcycle93" type="motorcycle_motorcycle" depart="13.62" departLane="best" from="-742032241" to="-23525701#2"/>
    <trip id="motorcycle94" type="motorcycle_motorcycle" depart="13.77" departLane="best" from="453656836#1" to="22742478#7"/>
    <trip id="motorcycle95" type="motorcycle_motorcycle" depart="13.92" departLane="best" departSpeed="max" from="23285733#0" to="892424150"/>
    <trip id="motorcycle96" type="motorcycle_motorcycle" depart="14.06" departLane="best" from="23525665#1" to="-1120792348"/>
    <trip id="motorcycle97" type="motorcycle_motorcycle" depart="14.21" departLane="best" from="453656780#1" to="-563535559"/>
    <trip id="motorcycle98" type="motorcycle_motorcycle" depart="14.36" departLane="best" departSpeed="max" from="23525687" to="817879005"/>
    <trip id="motorcycle99" type="motorcycle_motorcycle" depart="14.50" departLane="best" from="-23285729#2" to="22575354#0"/>
    <trip id="motorcycle100" type="motorcycle_motorcycle" depart="14.65" departLane="best" from="263935806#1" to="-321137975#0"/>
    <trip id="motorcycle101" type="motorcycle_motorcycle" depart="14.80" departLane="best" from="-618898628" to="-23074249#5"/>
    <trip id="motorcycle102" type="motorcycle_motorcycle" depart="14.94" departLane="best" from="-833357415#0" to="-444137819#1"/>
    <trip id="motorcycle103" type="motorcycle_motorcycle" depart="15.09" departLane="best" from="23525348#0" to="-337234314#2"/>
    <trip id="motorcycle104" type="motorcycle_motorcycle" depart="15.24" departLane="best" from="321137973#1" to="210551738#8"/>
    <trip id="motorcycle105" type="motorcycle_motorcycle" depart="15.38" departLane="best" departSpeed="max" from="-833357420#2" to="-1120792366"/>
    <trip id="motorcycle106" type="motorcycle_motorcycle" depart="15.53" departLane="best" departSpeed="max" from="715543512" to="210551738#13"/>
    <trip id="motorcycle107" type="motorcycle_motorcycle" depart="15.68" departLane="best" departSpeed="max" from="453659324" to="-23069862#5"/>
    <trip id="motorcycle108" type="motorcycle_motorcycle" depart="15.82" departLane="best" from="-23525695#1" to="-23525252"/>
    <trip id="motorcycle109" type="motorcycle_motorcycle" depart="15.97" departLane="best" from="-618898659#3" to="742032246"/>
    <trip id="motorcycle110" type="motorcycle_motorcycle" depart="16.11" departLane="best" from="337234312#0" to="698104774#5"/>
    <trip id="motorcycle111" type="motorcycle_motorcycle" depart="16.26" departLane="best" from="444137814#4" to="-321137975#23"/>
    <trip id="motorcycle112" type="motorcycle_motorcycle" depart="16.41" departLane="best" from="-337234312#3" to="-23285728#0"/>
    <trip id="motorcycle113" type="motorcycle_motorcycle" depart="16.55" departLane="best" from="321138555" to="719013036#1"/>
    <trip id="motorcycle114" type="motorcycle_motorcycle" depart="16.70" departLane="best" from="-817878995" to="22742478#9"/>
    <trip id="motorcycle115" type="motorcycle_motorcycle" depart="16.85" departLane="best" from="23525751" to="817878993#0"/>
    <trip id="motorcycle117" type="motorcycle_motorcycle" depart="17.14" departLane="best" from="-444137814#25" to="716757907#2"/>
    <trip id="motorcycle119" type="motorcycle_motorcycle" depart="17.43" departLane="best" from="-444137814#25" to="-444137814#12"/>
    <trip id="motorcycle120" type="motorcycle_motorcycle" depart="17.58" departLane="best" from="-321138546#12" to="618898631#0"/>
    <trip id="motorcycle121" type="motorcycle_motorcycle" depart="17.73" departLane="best" from="337234311#4" to="-321138545#0"/>
    <trip id="motorcycle122" type="motorcycle_motorcycle" depart="17.87" departLane="best" from="23525594#11" to="-817878990#3"/>
    <trip id="motorcycle124" type="motorcycle_motorcycle" depart="18.17" departLane="best" from="817878989#2" to="-23525033#0"/>
    <trip id="motorcycle125" type="motorcycle_motorcycle" depart="18.31" departLane="best" from="833357433#1" to="-263935658#1"/>
    <trip id="motorcycle126" type="motorcycle_motorcycle" depart="18.46" departLane="best" from="833357423#0" to="-444137814#10"/>
    <trip id="motorcycle127" type="motorcycle_motorcycle" depart="18.61" departLane="best" from="23074249#8" to="-833357440"/>
    <trip id="motorcycle128" type="motorcycle_motorcycle" depart="18.75" departLane="best" from="23285723#0" to="208837100#7"/>
    <trip id="motorcycle129" type="motorcycle_motorcycle" depart="18.90" departLane="best" departSpeed="max" from="-1085706109#1" to="817878988#4"/>
    <trip id="motorcycle130" type="motorcycle_motorcycle" depart="19.04" departLane="best" from="208856390#0" to="321137975#14"/>
    <trip id="motorcycle131" type="motorcycle_motorcycle" depart="19.19" departLane="best" from="-733891187#0" to="22575354#2"/>
    <trip id="motorcycle132" type="motorcycle_motorcycle" depart="19.34" departLane="best" from="-633827343#1" to="647888638#0"/>
    <trip id="motorcycle133" type="motorcycle_motorcycle" depart="19.48" departLane="best" from="263935807#4" to="-618889951#0"/>
    <trip id="motorcycle134" type="motorcycle_motorcycle" depart="19.63" departLane="best" from="-817878990#1" to="-453659325#0"/>
    <trip id="motorcycle135" type="motorcycle_motorcycle" depart="19.78" departLane="best" from="817878990#2" to="25515185#9"/>
    <trip id="motorcycle136" type="motorcycle_motorcycle" depart="19.92" departLane="best" from="707873048#1" to="23525333#0"/>
    <trip id="motorcycle137" type="motorcycle_motorcycle" depart="20.07" departLane="best" from="-833357423#1" to="23069187#7"/>
    <trip id="motorcycle138" type="motorcycle_motorcycle" depart="20.22" departLane="best" from="-23525665#3" to="1085706111#0"/>
    <trip id="motorcycle139" type="motorcycle_motorcycle" depart="20.36" departLane="best" from="-833357447" to="-321137978#0"/>
    <trip id="motorcycle140" type="motorcycle_motorcycle" depart="20.51" departLane="best" departSpeed="max" from="-983655228" to="742032247#1"/>
    <trip id="motorcycle141" type="motorcycle_motorcycle" depart="20.66" departLane="best" from="337234312#0" to="-260145040#0"/>
    <trip id="motorcycle142" type="motorcycle_motorcycle" depart="20.80" departLane="best" from="-22742466#11" to="208837105#1"/>
    <trip id="motorcycle143" type="motorcycle_motorcycle" depart="20.95" departLane="best" from="-321137975#20" to="-208837096"/>
    <trip id="motorcycle144" type="motorcycle_motorcycle" depart="21.10" departLane="best" from="337234310#1" to="1113174357#1"/>
    <trip id="motorcycle145" type="motorcycle_motorcycle" depart="21.24" departLane="best" departSpeed="max" from="618898644" to="22575354#8"/>
    <trip id="motorcycle146" type="motorcycle_motorcycle" depart="21.39" departLane="best" departSpeed="max" from="-817879006" to="23525594#7"/>
    <trip id="motorcycle147" type="motorcycle_motorcycle" depart="21.53" departLane="best" from="321137975#11" to="-263935807#8"/>
    <trip id="motorcycle148" type="motorcycle_motorcycle" depart="21.68" departLane="best" from="1120792378#2" to="321138561#4"/>
    <trip id="motorcycle149" type="motorcycle_motorcycle" depart="21.83" departLane="best" from="23525676#0" to="-1113174356#0"/>
    <trip id="motorcycle150" type="motorcycle_motorcycle" depart="21.97" departLane="best" from="321137975#5" to="337234311#2"/>
    <trip id="motorcycle151" type="motorcycle_motorcycle" depart="22.12" departLane="best" from="-23285729#0" to="-833357428"/>
    <trip id="motorcycle152" type="motorcycle_motorcycle" depart="22.27" departLane="best" from="-263935808#2" to="833357427"/>
    <trip id="motorcycle153" type="motorcycle_motorcycle" depart="22.41" departLane="best" from="-208837102#0" to="-208855900#0"/>
    <trip id="motorcycle154" type="motorcycle_motorcycle" depart="22.56" departLane="best" from="-337234312#2" to="647888638#1"/>
    <trip id="motorcycle155" type="motorcycle_motorcycle" depart="22.71" departLane="best" from="23525701#1" to="892424151"/>
    <trip id="motorcycle156" type="motorcycle_motorcycle" depart="22.85" departLane="best" from="23074249#11" to="833357419#0"/>
    <trip id="motorcycle157" type="motorcycle_motorcycle" depart="23.00" departLane="best" from="707873036#4" to="-23525233#2"/>
    <trip id="motorcycle158" type="motorcycle_motorcycle" depart="23.15" departLane="best" from="263935807#3" to="208837098#3"/>
    <trip id="motorcycle159" type="motorcycle_motorcycle" depart="23.29" departLane="best" from="453656834#0" to="210551738#18"/>
    <trip id="motorcycle160" type="motorcycle_motorcycle" depart="23.44" departLane="best" from="707873040#3" to="-321138545#9"/>
    <trip id="motorcycle161" type="motorcycle_motorcycle" depart="23.59" departLane="best" departSpeed="max" from="-983655229#2" to="-337234312#3"/>
    <trip id="motorcycle162" type="motorcycle_motorcycle" depart="23.73" departLane="best" from="-337234311#3" to="23525676#1"/>
    <trip id="motorcycle163" type="motorcycle_motorcycle" depart="23.88" departLane="best" from="321137988" to="208855893#0"/>
    <trip id="motorcycle164" type="motorcycle_motorcycle" depart="24.03" departLane="best" from="23525210#1" to="-444137814#4"/>
    <trip id="motorcycle165" type="motorcycle_motorcycle" depart="24.17" departLane="best" departSpeed="max" from="-22575354#21" to="-453656788#0"/>
    <trip id="motorcycle166" type="motorcycle_motorcycle" depart="24.32" departLane="best" from="321138555" to="263935807#3"/>
    <trip id="motorcycle167" type="motorcycle_motorcycle" depart="24.46" departLane="best" from="260145043#0" to="210372641"/>
    <trip id="motorcycle168" type="motorcycle_motorcycle" depart="24.61" departLane="best" from="-833356751" to="751318026"/>
    <trip id="motorcycle169" type="motorcycle_motorcycle" depart="24.76" departLane="best" from="618898654" to="337234309#0"/>
    <trip id="motorcycle170" type="motorcycle_motorcycle" depart="24.90" departLane="best" from="-751319147" to="-1113174356#0"/>
    <trip id="motorcycle171" type="motorcycle_motorcycle" depart="25.05" departLane="best" from="-707873048#0" to="321138553"/>
    <trip id="motorcycle172" type="motorcycle_motorcycle" depart="25.20" departLane="best" from="618898652" to="833357422"/>
    <trip id="motorcycle173" type="motorcycle_motorcycle" depart="25.34" departLane="best" from="-833356747#0" to="321138546#6"/>
    <trip id="motorcycle174" type="motorcycle_motorcycle" depart="25.49" departLane="best" from="-208966902#7" to="23285864#0"/>
    <trip id="motorcycle176" type="motorcycle_motorcycle" depart="25.78" departLane="best" from="833357433#1" to="208837099#3"/>
    <trip id="motorcycle177" type="motorcycle_motorcycle" depart="25.93" departLane="best" from="-694770862" to="-260145040#3"/>
    <trip id="motorcycle178" type="motorcycle_motorcycle" depart="26.08" departLane="best" from="-817878993#0" to="-23525763"/>
    <trip id="motorcycle179" type="motorcycle_motorcycle" depart="26.22" departLane="best" departSpeed="max" from="-892424156#1" to="-23525252"/>
    <trip id="motorcycle180" type="motorcycle_motorcycle" depart="26.37" departLane="best" departSpeed="max" from="23525170" to="-208837098#5"/>
    <trip id="motorcycle181" type="motorcycle_motorcycle" depart="26.52" departLane="best" departSpeed="max" from="-1269099341" to="-23525682#4"/>
    <trip id="motorcycle182" type="motorcycle_motorcycle" depart="26.66" departLane="best" from="-23525664#0" to="-1085706109#0"/>
    <trip id="motorcycle183" type="motorcycle_motorcycle" depart="26.81" departLane="best" from="-208837108#1" to="-742032244#3"/>
    <trip id="motorcycle184" type="motorcycle_motorcycle" depart="26.96" departLane="best" from="-321137985#2" to="-633827333"/>
    <trip id="motorcycle185" type="motorcycle_motorcycle" depart="27.10" departLane="best" from="-321137985#2" to="-742032244#3"/>
    <trip id="motorcycle186" type="motorcycle_motorcycle" depart="27.25" departLane="best" from="321137975#8" to="618898659#3"/>
    <trip id="motorcycle187" type="motorcycle_motorcycle" depart="27.39" departLane="best" from="-323406160#1" to="698104774#3"/>
    <trip id="motorcycle188" type="motorcycle_motorcycle" depart="27.54" departLane="best" from="23525594#8" to="444137814#12"/>
    <trip id="motorcycle189" type="motorcycle_motorcycle" depart="27.69" departLane="best" from="23525664#1" to="321138554"/>
    <trip id="motorcycle190" type="motorcycle_motorcycle" depart="27.83" departLane="best" from="-1120792378#0" to="-23525687"/>
    <trip id="motorcycle191" type="motorcycle_motorcycle" depart="27.98" departLane="best" from="-23525348#0" to="241604571#4"/>
    <trip id="motorcycle192" type="motorcycle_motorcycle" depart="28.13" departLane="best" from="-22575354#1" to="-321137982#2"/>
    <trip id="motorcycle193" type="motorcycle_motorcycle" depart="28.27" departLane="best" from="25515185#14" to="337234309#3"/>
    <trip id="motorcycle194" type="motorcycle_motorcycle" depart="28.42" departLane="best" from="-263935657#1" to="23525033#1"/>
    <trip id="motorcycle195" type="motorcycle_motorcycle" depart="28.57" departLane="best" from="321137975#20" to="-23285869#5"/>
    <trip id="motorcycle196" type="motorcycle_motorcycle" depart="28.71" departLane="best" from="-23285731#1" to="208837098#1"/>
    <trip id="motorcycle197" type="motorcycle_motorcycle" depart="28.86" departLane="best" from="-321138561#4" to="-817878989#0"/>
    <trip id="motorcycle198" type="motorcycle_motorcycle" depart="29.01" departLane="best" from="263935657#1" to="22575412#6"/>
    <trip id="motorcycle199" type="motorcycle_motorcycle" depart="29.15" departLane="best" from="-23285721#0" to="337234312#2"/>
    <trip id="motorcycle200" type="motorcycle_motorcycle" depart="29.30" departLane="best" departSpeed="max" from="618898644" to="-23285735#1"/>
    <trip id="motorcycle201" type="motorcycle_motorcycle" depart="29.45" departLane="best" from="23525211" to="892424148#0"/>
    <trip id="motorcycle202" type="motorcycle_motorcycle" depart="29.59" departLane="best" from="-321138561#4" to="-694770860#2"/>
    <trip id="motorcycle203" type="motorcycle_motorcycle" depart="29.74" departLane="best" from="-833357421#1" to="719013038#3"/>
    <trip id="motorcycle204" type="motorcycle_motorcycle" depart="29.89" departLane="best" from="-208827155#4" to="-647888639#2"/>
    <trip id="motorcycle205" type="motorcycle_motorcycle" depart="30.03" departLane="best" from="-618898643#1" to="618898647#1"/>
    <trip id="motorcycle206" type="motorcycle_motorcycle" depart="30.18" departLane="best" from="-23285728#0" to="833357434"/>
    <trip id="motorcycle207" type="motorcycle_motorcycle" depart="30.32" departLane="best" from="-23525326#1" to="618898656"/>
    <trip id="motorcycle208" type="motorcycle_motorcycle" depart="30.47" departLane="best" from="260145043#2" to="-833357441"/>
    <trip id="motorcycle209" type="motorcycle_motorcycle" depart="30.62" departLane="best" from="321137968#6" to="833357445"/>
    <trip id="motorcycle210" type="motorcycle_motorcycle" depart="30.76" departLane="best" from="208856389" to="1120792377"/>
    <trip id="motorcycle211" type="motorcycle_motorcycle" depart="30.91" departLane="best" from="833357432#1" to="321137982#3"/>
    <trip id="motorcycle212" type="motorcycle_motorcycle" depart="31.06" departLane="best" from="-444137819#2" to="647888641"/>
    <trip id="motorcycle213" type="motorcycle_motorcycle" depart="31.20" departLane="best" from="453656834#1" to="-23069862#3"/>
    <trip id="motorcycle214" type="motorcycle_motorcycle" depart="31.35" departLane="best" from="647888641" to="-321138561#4"/>
    <trip id="motorcycle215" type="motorcycle_motorcycle" depart="31.50" departLane="best" departSpeed="max" from="-892424152" to="-23525210#1"/>
    <trip id="motorcycle217" type="motorcycle_motorcycle" depart="31.79" departLane="best" from="618898646" to="263935807#2"/>
    <trip id="motorcycle218" type="motorcycle_motorcycle" depart="31.94" departLane="best" departSpeed="max" from="-707873035" to="716757907#0"/>
    <trip id="motorcycle219" type="motorcycle_motorcycle" depart="32.08" departLane="best" from="25515185#4" to="-444137819#0"/>