<?xml version="1.0" encoding="UTF-8"?>

<!-- generated on 2024-12-09 18:14:50.051840 by osmWebWizard.py v1_21_0+0000-d7b3b481c43
<configuration>
    <net-file value="C:\Users\salar\Sumo\2024-12-09-18-14-24\osm.net.xml.gz"/>
    <output-trip-file value="C:\Users\salar\Sumo\2024-12-09-18-14-24\osm.bus.trips.xml"/>
    <route-file value="C:\Users\salar\Sumo\2024-12-09-18-14-24\osm.bus.rou.xml"/>
    <prefix value="bus"/>
    <trip-attributes value="departLane=&quot;best&quot;"/>
    <fringe-start-attributes value="departSpeed=&quot;max&quot;"/>
    <vehicle-class value="bus"/>
    <fringe-factor value="5"/>
    <vclass value="bus"/>
    <via-edge-types value="highway.motorway,highway.motorway_link,highway.trunk_link,highway.primary_link,highway.secondary_link,highway.tertiary_link"/>
    <min-distance value="600.0"/>
    <min-distance.fringe value="10.0"/>
    <remove-loops value="True"/>
    <validate value="True"/>
    <insertion-density value="199.0"/>
</configuration>
-->

<!-- generated on 2024-12-09 18:14:43 by Eclipse SUMO duarouter Version 1.21.0
<duarouterConfiguration xmlns:xsi="http://www.w3.org/2001/XMLSchema-instance" xsi:noNamespaceSchemaLocation="http://sumo.dlr.de/xsd/duarouterConfiguration.xsd">

    <input>
        <net-file value="C:\Users\salar\Sumo\2024-12-09-18-14-24\osm.net.xml.gz"/>
        <route-files value="C:\Users\salar\Sumo\2024-12-09-18-14-24\osm.bus.trips.xml"/>
    </input>

    <output>
        <output-file value="C:\Users\salar\Sumo\2024-12-09-18-14-24\osm.bus.trips.xml.tmp"/>
        <alternatives-output value="NUL"/>
        <write-trips value="true"/>
    </output>

    <processing>
        <remove-loops value="true"/>
    </processing>

    <time>
        <begin value="0.0"/>
        <end value="3600.0"/>
    </time>

    <report>
        <no-warnings value="true"/>
        <ignore-errors value="true"/>
        <no-step-log value="true"/>
    </report>

</duarouterConfiguration>
-->

<routes xmlns:xsi="http://www.w3.org/2001/XMLSchema-instance" xsi:noNamespaceSchemaLocation="http://sumo.dlr.de/xsd/routes_file.xsd">
    <vType id="bus_bus" vClass="bus"/>
    <trip id="bus0" type="bus_bus" depart="0.00" departLane="best" departSpeed="max" from="23525233#0" to="-208837096"/>
    <trip id="bus1" type="bus_bus" depart="0.15" departLane="best" departSpeed="max" from="-618898640#1" to="-321137987"/>
    <trip id="bus2" type="bus_bus" depart="0.29" departLane="best" departSpeed="max" from="707873047#0" to="-23069862#0"/>
    <trip id="bus3" type="bus_bus" depart="0.44" departLane="best" departSpeed="max" from="-1120792376" to="-321137971#6"/>
    <trip id="bus4" type="bus_bus" depart="0.59" departLane="best" from="23525348#0" to="210551736#13"/>
    <trip id="bus5" type="bus_bus" depart="0.74" departLane="best" from="321138565#3" to="23276636#2"/>
    <trip id="bus6" type="bus_bus" depart="0.88" departLane="best" from="453656780#1" to="-1113174357#0"/>
    <trip id="bus7" type="bus_bus" depart="1.03" departLane="best" from="444137814#4" to="-321137975#14"/>
    <trip id="bus8" type="bus_bus" depart="1.18" departLane="best" from="-719013037" to="-23525687"/>
    <trip id="bus9" type="bus_bus" depart="1.32" departLane="best" from="-833357427" to="-698104774#2"/>
    <trip id="bus10" type="bus_bus" depart="1.47" departLane="best" from="22742466#2" to="-23074254#2"/>
    <trip id="bus11" type="bus_bus" depart="1.62" departLane="best" from="618898647#2" to="23525154"/>
    <trip id="bus12" type="bus_bus" depart="1.77" departLane="best" from="444137814#9" to="321138561#1"/>
    <trip id="bus13" type="bus_bus" depart="1.91" departLane="best" departSpeed="max" from="208838650" to="837265387#2"/>
    <trip id="bus14" type="bus_bus" depart="2.06" departLane="best" from="453659325#1" to="23525588"/>
    <trip id="bus15" type="bus_bus" depart="2.21" departLane="best" from="633827344#1" to="22742478#3"/>
    <trip id="bus16" type="bus_bus" depart="2.35" departLane="best" from="337234310#1" to="-504084354"/>
    <trip id="bus17" type="bus_bus" depart="2.50" departLane="best" from="208966902#9" to="-321138548#1"/>
    <trip id="bus18" type="bus_bus" depart="2.65" departLane="best" from="23074249#8" to="-453656791#0"/>
    <trip id="bus19" type="bus_bus" depart="2.79" departLane="best" from="760442529#1" to="-321137975#4"/>
    <trip id="bus20" type="bus_bus" depart="2.94" departLane="best" from="563535559" to="833357423#0"/>
    <trip id="bus21" type="bus_bus" depart="3.09" departLane="best" departSpeed="max" from="23525270" to="23525326#0"/>
    <trip id="bus22" type="bus_bus" depart="3.24" departLane="best" departSpeed="max" from="-263935811#3" to="321138561#0"/>
    <trip id="bus23" type="bus_bus" depart="3.38" departLane="best" from="-263935807#0" to="-817878986"/>
    <trip id="bus24" type="bus_bus" depart="3.53" departLane="best" from="-208966902#10" to="28485681#6"/>
    <trip id="bus25" type="bus_bus" depart="3.68" departLane="best" from="618898638#1" to="504084351#1"/>
    <trip id="bus26" type="bus_bus" depart="3.82" departLane="best" from="-707873036#0" to="-453656780#0"/>
    <trip id="bus27" type="bus_bus" depart="3.97" departLane="best" from="-321138548#0" to="833357431#1"/>
    <trip id="bus28" type="bus_bus" depart="4.12" departLane="best" from="660589669" to="-633827326#2"/>
    <trip id="bus30" type="bus_bus" depart="4.41" departLane="best" from="754731729#0" to="1085706109#1"/>
    <trip id="bus31" type="bus_bus" depart="4.56" departLane="best" departSpeed="max" from="-504084353#1" to="-337234310#0"/>
    <trip id="bus32" type="bus_bus" depart="4.71" departLane="best" from="-210372641" to="-444137814#25"/>
    <trip id="bus33" type="bus_bus" depart="4.85" departLane="best" from="22575457#0" to="817870813"/>
    <trip id="bus34" type="bus_bus" depart="5.00" departLane="best" from="-817879001#0" to="321137985#2"/>
    <trip id="bus35" type="bus_bus" depart="5.15" departLane="best" from="-983655231#1" to="-208827155#0"/>
    <trip id="bus36" type="bus_bus" depart="5.30" departLane="best" from="-23285729#0" to="23525665#4"/>
    <trip id="bus37" type="bus_bus" depart="5.44" departLane="best" from="337234312#1" to="-833357436#0"/>
    <trip id="bus38" type="bus_bus" depart="5.59" departLane="best" from="-208838653#1" to="-817878988#4"/>
    <trip id="bus39" type="bus_bus" depart="5.74" departLane="best" departSpeed="max" from="983655229#0" to="208855893#2"/>
    <trip id="bus40" type="bus_bus" depart="5.88" departLane="best" from="1113174356#1" to="321138546#3"/>
    <trip id="bus41" type="bus_bus" depart="6.03" departLane="best" from="23525722#4" to="208856390#1"/>
    <trip id="bus42" type="bus_bus" depart="6.18" departLane="best" from="563535559" to="23525594#6"/>
    <trip id="bus43" type="bus_bus" depart="6.32" departLane="best" from="23285733#1" to="-833357444"/>
    <trip id="bus44" type="bus_bus" depart="6.47" departLane="best" from="-647888645" to="-444137814#27"/>
    <trip id="bus45" type="bus_bus" depart="6.62" departLane="best" from="-1120792349" to="-263935656#1"/>
    <trip id="bus46" type="bus_bus" depart="6.77" departLane="best" from="-647888635" to="-23525731"/>
    <trip id="bus47" type="bus_bus" depart="6.91" departLane="best" from="23074254#2" to="-23525682#4"/>
    <trip id="bus48" type="bus_bus" depart="7.06" departLane="best" from="-1085706109#0" to="-647888629#1"/>
    <trip id="bus49" type="bus_bus" depart="7.21" departLane="best" departSpeed="max" from="-1120792365" to="833357413#1"/>
    <trip id="bus50" type="bus_bus" depart="7.35" departLane="best" departSpeed="max" from="-656085038" to="-208856388#2"/>
    <trip id="bus51" type="bus_bus" depart="7.50" departLane="best" from="694770862" to="-833357438#0"/>
    <trip id="bus52" type="bus_bus" depart="7.65" departLane="best" departSpeed="max" from="-22575354#21" to="1120792376"/>
    <trip id="bus53" type="bus_bus" depart="7.80" departLane="best" from="321137988" to="-23525233#2"/>
    <trip id="bus54" type="bus_bus" depart="7.94" departLane="best" departSpeed="max" from="-504084353#1" to="742032248#3"/>
    <trip id="bus55" type="bus_bus" depart="8.09" departLane="best" from="-321137986#2" to="-633827323"/>
    <trip id="bus56" type="bus_bus" depart="8.24" departLane="best" from="23525210#1" to="-321138545#0"/>
    <trip id="bus57" type="bus_bus" depart="8.38" departLane="best" departSpeed="max" from="-719013032" to="23276636#0"/>
    <trip id="bus58" type="bus_bus" depart="8.53" departLane="best" from="-337234311#4" to="-321137986#1"/>
    <trip id="bus59" type="bus_bus" depart="8.68" departLane="best" from="-208855898#2" to="23525676#5"/>
    <trip id="bus60" type="bus_bus" depart="8.83" departLane="best" from="-337234311#0" to="817878993#0"/>
    <trip id="bus61" type="bus_bus" depart="8.97" departLane="best" departSpeed="max" from="633827333" to="22575354#18"/>
    <trip id="bus62" type="bus_bus" depart="9.12" departLane="best" departSpeed="max" from="-438953441" to="263935513#5"/>
    <trip id="bus63" type="bus_bus" depart="9.27" departLane="best" departSpeed="max" from="-321138549#2" to="-23525252"/>
    <trip id="bus64" type="bus_bus" depart="9.41" departLane="best" from="817879008#0" to="22742466#2"/>
    <trip id="bus65" type="bus_bus" depart="9.56" departLane="best" departSpeed="max" from="-892424155" to="618898631#0"/>
    <trip id="bus66" type="bus_bus" depart="9.71" departLane="best" from="444137819#0" to="-263935811#1"/>
    <trip id="bus67" type="bus_bus" depart="9.86" departLane="best" from="-23069862#1" to="-833357442"/>
    <trip id="bus68" type="bus_bus" depart="10.00" departLane="best" from="-833357422" to="1085706116"/>
    <trip id="bus69" type="bus_bus" depart="10.15" departLane="best" from="-837265380#0" to="-23276636#1"/>
    <trip id="bus70" type="bus_bus" depart="10.30" departLane="best" from="633827344#1" to="-337234311#1"/>
    <trip id="bus71" type="bus_bus" depart="10.44" departLane="best" from="321137975#5" to="-892424161"/>
    <trip id="bus72" type="bus_bus" depart="10.59" departLane="best" departSpeed="max" from="-833357420#2" to="-453656791#0"/>
    <trip id="bus76" type="bus_bus" depart="11.18" departLane="best" from="618898653#0" to="-23525738#0"/>
    <trip id="bus78" type="bus_bus" depart="11.47" departLane="best" departSpeed="max" from="-817879001#1" to="208856390#0"/>
    <trip id="bus80" type="bus_bus" depart="11.77" departLane="best" departSpeed="max" from="-504084353#1" to="618898626#3"/>
    <trip id="bus81" type="bus_bus" depart="11.91" departLane="best" from="-833357427" to="983655228"/>
    <trip id="bus82" type="bus_bus" depart="12.06" departLane="best" from="-260145040#1" to="-618898626#0"/>
    <trip id="bus83" type="bus_bus" depart="12.21" departLane="best" departSpeed="max" from="833357437" to="23069187#1"/>
    <trip id="bus84" type="bus_bus" depart="12.36" departLane="best" from="-208837100#8" to="-23074249#3"/>
    <trip id="bus85" type="bus_bus" depart="12.50" departLane="best" departSpeed="max" from="1120792366" to="719013036#2"/>
    <trip id="bus86" type="bus_bus" depart="12.65" departLane="best" from="260145043#1" to="834052502#1"/>
    <trip id="bus87" type="bus_bus" depart="12.80" departLane="best" from="-210372641" to="-263935807#8"/>
    <trip id="bus88" type="bus_bus" depart="12.94" departLane="best" from="28485681#4" to="263935807#1"/>
    <trip id="bus89" type="bus_bus" depart="13.09" departLane="best" from="22742478#3" to="23525594#1"/>
    <trip id="bus90" type="bus_bus" depart="13.24" departLane="best" departSpeed="max" from="-833357419#1" to="-23074249#2"/>
    <trip id="bus92" type="bus_bus" depart="13.53" departLane="best" departSpeed="max" from="23525687" to="-618898638#1"/>
    <trip id="bus93" type="bus_bus" depart="13.68" departLane="best" from="-707873036#2" to="438953441"/>
    <trip id="bus94" type="bus_bus" depart="13.83" departLane="best" from="-208856388#0" to="1085706109#0"/>
    <trip id="bus96" type="bus_bus" depart="14.12" departLane="best" departSpeed="max" from="-504084353#1" to="833357419#1"/>
    <trip id="bus97" type="bus_bus" depart="14.27" departLane="best" from="759826067#1" to="-23525695#1"/>
    <trip id="bus98" type="bus_bus" depart="14.42" departLane="best" from="563535559" to="-321137975#6"/>
    <trip id="bus99" type="bus_bus" depart="14.56" departLane="best" from="-23276678" to="892424156#1"/>
    <trip id="bus100" type="bus_bus" depart="14.71" departLane="best" from="453656788#2" to="-618898637"/>
    <trip id="bus101" type="bus_bus" depart="14.86" departLane="best" from="23525665#2" to="833357426#2"/>
    <trip id="bus102" type="bus_bus" depart="15.00" departLane="best" from="23525664#0" to="-23285869#4"/>
    <trip id="bus103" type="bus_bus" depart="15.15" departLane="best" from="-618898635" to="-23525187"/>
    <trip id="bus104" type="bus_bus" depart="15.30" departLane="best" from="263935513#5" to="-321137975#10"/>
    <trip id="bus105" type="bus_bus" depart="15.44" departLane="best" from="23525180" to="-444137814#3"/>
    <trip id="bus106" type="bus_bus" depart="15.59" departLane="best" from="618898646" to="-23074249#0"/>
    <trip id="bus107" type="bus_bus" depart="15.74" departLane="best" from="-833357422" to="-453656788#2"/>
    <trip id="bus108" type="bus_bus" depart="15.89" departLane="best" from="23525210#1" to="-444137814#23"/>
    <trip id="bus109" type="bus_bus" depart="16.03" departLane="best" from="321137971#6" to="210551738#16"/>
    <trip id="bus110" type="bus_bus" depart="16.18" departLane="best" from="-833357430#0" to="-1120792366"/>
    <trip id="bus111" type="bus_bus" depart="16.33" departLane="best" from="-208966902#0" to="-759826067#1"/>
    <trip id="bus112" type="bus_bus" depart="16.47" departLane="best" from="733895008#0" to="210551736#13"/>
    <trip id="bus113" type="bus_bus" depart="16.62" departLane="best" departSpeed="max" from="618889951#0" to="-23074249#1"/>
    <trip id="bus114" type="bus_bus" depart="16.77" departLane="best" departSpeed="max" from="-656085038" to="817878987#0"/>
    <trip id="bus116" type="bus_bus" depart="17.06" departLane="best" from="719013033" to="-321137975#5"/>
    <trip id="bus117" type="bus_bus" depart="17.21" departLane="best" from="-453656779#0" to="-23285725#2"/>
    <trip id="bus118" type="bus_bus" depart="17.36" departLane="best" departSpeed="max" from="-817879006" to="23525594#2"/>
    <trip id="bus119" type="bus_bus" depart="17.50" departLane="best" from="-260145040#0" to="833357415#0"/>
    <trip id="bus120" type="bus_bus" depart="17.65" departLane="best" from="647888628" to="892424148#2"/>
    <trip id="bus121" type="bus_bus" depart="17.80" departLane="best" from="453656782#0" to="754731731#2"/>
    <trip id="bus122" type="bus_bus" depart="17.95" departLane="best" departSpeed="max" from="-1120792373" to="323406160#3"/>
    <trip id="bus123" type="bus_bus" depart="18.09" departLane="best" departSpeed="max" from="-715543510" to="833357418#1"/>
    <trip id="bus124" type="bus_bus" depart="18.24" departLane="best" from="444137814#2" to="742032244#5"/>
    <trip id="bus125" type="bus_bus" depart="18.39" departLane="best" from="453656782#0" to="-444137819#2"/>
    <trip id="bus126" type="bus_bus" depart="18.53" departLane="best" from="647888639#0" to="742032237#1"/>
    <trip id="bus127" type="bus_bus" depart="18.68" departLane="best" from="-321140389#1" to="-647888643#0"/>
    <trip id="bus128" type="bus_bus" depart="18.83" departLane="best" departSpeed="max" from="-1120792373" to="-321137968#0"/>
    <trip id="bus129" type="bus_bus" depart="18.97" departLane="best" from="-707873048#3" to="742032244#5"/>
    <trip id="bus130" type="bus_bus" depart="19.12" departLane="best" from="-833357436#1" to="-453656793#0"/>
    <trip id="bus131" type="bus_bus" depart="19.27" departLane="best" from="23525233#2" to="-833357413#1"/>
    <trip id="bus132" type="bus_bus" depart="19.42" departLane="best" from="-834052500#0" to="208856389"/>
    <trip id="bus134" type="bus_bus" depart="19.71" departLane="best" departSpeed="max" from="833357432#0" to="-444137814#9"/>
    <trip id="bus135" type="bus_bus" depart="19.86" departLane="best" from="-23285725#2" to="-833357444"/>
    <trip id="bus136" type="bus_bus" depart="20.00" departLane="best" from="23074249#2" to="208827155#6"/>
    <trip id="bus137" type="bus_bus" depart="20.15" departLane="best" from="-817878987#1" to="22742478#14"/>
    <trip id="bus139" type="bus_bus" depart="20.45" departLane="best" departSpeed="max" from="-1085706109#1" to="833356747#1"/>
    <trip id="bus140" type="bus_bus" depart="20.59" departLane="best" from="208838651#4" to="321138546#10"/>
    <trip id="bus141" type="bus_bus" depart="20.74" departLane="best" from="321137971#8" to="263935656#2"/>
    <trip id="bus142" type="bus_bus" depart="20.89" departLane="best" departSpeed="max" from="-751319503" to="22575354#15"/>
    <trip id="bus143" type="bus_bus" depart="21.03" departLane="best" from="23525675#1" to="-647888639#2"/>
    <trip id="bus144" type="bus_bus" depart="21.18" departLane="best" from="-660589669" to="-833357421#0"/>
    <trip id="bus145" type="bus_bus" depart="21.33" departLane="best" departSpeed="max" from="-817879002" to="-618898622#1"/>
    <trip id="bus146" type="bus_bus" depart="21.48" departLane="best" from="-23525543#5" to="-833357433#1"/>
    <trip id="bus148" type="bus_bus" depart="21.77" departLane="best" from="719013551#2" to="-23525559#0"/>
    <trip id="bus149" type="bus_bus" depart="21.92" departLane="best" from="-1085706109#0" to="-453659325#0"/>
    <trip id="bus150" type="bus_bus" depart="22.06" departLane="best" departSpeed="max" from="-833357431#1" to="23069187#6"/>
    <trip id="bus152" type="bus_bus" depart="22.36" departLane="best" departSpeed="max" from="-22575354#21" to="208837099#3"/>
    <trip id="bus153" type="bus_bus" depart="22.51" departLane="best" departSpeed="max" from="453656791#0" to="438953441"/>
    <trip id="bus154" type="bus_bus" depart="22.65" departLane="best" departSpeed="max" from="23525695#0" to="-321138545#0"/>
    <trip id="bus155" type="bus_bus" depart="22.80" departLane="best" departSpeed="max" from="-321137985#3" to="208827155#7"/>
    <trip id="bus156" type="bus_bus" depart="22.95" departLane="best" from="618898653#2" to="22575354#6"/>
    <trip id="bus157" type="bus_bus" depart="23.09" departLane="best" departSpeed="max" from="-833357411#1" to="23525676#1"/>
    <trip id="bus158" type="bus_bus" depart="23.24" departLane="best" from="-1085706111#0" to="-323406160#1"/>
    <trip id="bus159" type="bus_bus" depart="23.39" departLane="best" from="23525588" to="-1113174356#0"/>
    <trip id="bus160" type="bus_bus" depart="23.53" departLane="best" from="321137975#23" to="453656788#3"/>
    <trip id="bus161" type="bus_bus" depart="23.68" departLane="best" from="-23285722" to="-833357438#0"/>
    <trip id="bus162" type="bus_bus" depart="23.83" departLane="best" from="208827155#4" to="-208855898#2"/>
    <trip id="bus163" type="bus_bus" depart="23.98" departLane="best" departSpeed="max" from="-837265370#1" to="-633827327"/>
    <trip id="bus164" type="bus_bus" depart="24.12" departLane="best" from="22742478#8" to="833357445"/>
    <trip id="bus165" type="bus_bus" depart="24.27" departLane="best" departSpeed="max" from="707873047#0" to="-23525402"/>
    <trip id="bus166" type="bus_bus" depart="24.42" departLane="best" from="263935656#2" to="1311607754"/>
    <trip id="bus167" type="bus_bus" depart="24.56" departLane="best" departSpeed="max" from="504084347" to="210551736#7"/>
    <trip id="bus168" type="bus_bus" depart="24.71" departLane="best" from="444137814#6" to="23525722#1"/>
    <trip id="bus169" type="bus_bus" depart="24.86" departLane="best" departSpeed="max" from="321137987" to="208837102#0"/>
    <trip id="bus170" type="bus_bus" depart="25.01" departLane="best" from="23285869#0" to="-453656788#0"/>
    <trip id="bus171" type="bus_bus" depart="25.15" departLane="best" from="-208966902#3" to="-453659325#0"/>
    <trip id="bus172" type="bus_bus" depart="25.30" departLane="best" from="208838653#3" to="-23525540#1"/>
    <trip id="bus173" type="bus_bus" depart="25.45" departLane="best" from="-337234312#2" to="321137971#4"/>
    <trip id="bus174" type="bus_bus" depart="25.59" departLane="best" departSpeed="max" from="25515185#0" to="208966902#3"/>
    <trip id="bus175" type="bus_bus" depart="25.74" departLane="best" from="-817879008#0" to="210372641"/>
    <trip id="bus176" type="bus_bus" depart="25.89" departLane="best" from="-833357413#0" to="-321137975#19"/>
    <trip id="bus177" type="bus_bus" depart="26.04" departLane="best" departSpeed="max" from="-833357419#1" to="817878992"/>
    <trip id="bus178" type="bus_bus" depart="26.18" departLane="best" from="22575412#7" to="-321137971#9"/>
    <trip id="bus179" type="bus_bus" depart="26.33" departLane="best" departSpeed="max" from="633827329" to="453656782#1"/>
    <trip id="bus180" type="bus_bus" depart="26.48" departLane="best" departSpeed="max" from="-742032244#5" to="444137814#10"/>
    <trip id="bus182" type="bus_bus" depart="26.77" departLane="best" departSpeed="max" from="208856046" to="23525033#1"/>
    <trip id="bus183" type="bus_bus" depart="26.92" departLane="best" from="-321138565#4" to="321137985#2"/>
    <trip id="bus184" type="bus_bus" depart="27.07" departLane="best" departSpeed="max" from="-833357438#3" to="208837099#1"/>
    <trip id="bus185" type="bus_bus" depart="27.21" departLane="best" departSpeed="max" from="-716757907#2" to="263935808#3"/>
    <trip id="bus186" type="bus_bus" depart="27.36" departLane="best" departSpeed="max" from="-817879005" to="-23525722#4"/>
    <trip id="bus187" type="bus_bus" depart="27.51" departLane="best" departSpeed="max" from="-892424150" to="-23525233#0"/>
    <trip id="bus188" type="bus_bus" depart="27.65" departLane="best" departSpeed="max" from="23285735#0" to="208837098#1"/>
    <trip id="bus189" type="bus_bus" depart="27.80" departLane="best" from="-698104774#2" to="22575354#7"/>
    <trip id="bus190" type="bus_bus" depart="27.95" departLane="best" departSpeed="max" from="-1120792376" to="23581308"/>
    <trip id="bus191" type="bus_bus" depart="28.09" departLane="best" from="208827155#6" to="-817870812"/>
    <trip id="bus192" type="bus_bus" depart="28.24" departLane="best" from="-321137985#2" to="-817870812"/>
    <trip id="bus193" type="bus_bus" depart="28.39" departLane="best" from="321137975#5" to="707873038#2"/>
    <trip id="bus194" type="bus_bus" depart="28.54" departLane="best" departSpeed="max" from="-453656781#2" to="-22742467#0"/>
    <trip id="bus195" type="bus_bus" depart="28.68" departLane="best" departSpeed="max" from="-1120792365" to="208966902#14"/>
    <trip id="bus196" type="bus_bus" depart="28.83" departLane="best" from="23525402" to="618889950"/>
    <trip id="bus197" type="bus_bus" depart="28.98" departLane="best" from="23525557#2" to="444137814#12"/>
    <trip id="bus198" type="bus_bus" depart="29.12" departLane="best" from="-23525348#0" to="263935513#7"/>
    <trip id="bus200" type="bus_bus" depart="29.42" departLane="best" departSpeed="max" from="241604571#0" to="453656785#0"/>
    <trip id="bus201" type="bus_bus" depart="29.57" departLane="best" from="-263935808#3" to="-23525233#1"/>
    <trip id="bus202" type="bus_bus" depart="29.71" departLane="best" from="321137975#16" to="-23285869#1"/>
    <trip id="bus203" type="bus_bus" depart="29.86" departLane="best" departSpeed="max" from="453656791#0" to="834052505"/>
    <trip id="bus204" type="bus_bus" depart="30.01" departLane="best" from="-23285725#1" to="-208837096"/>
    <trip id="bus205" type="bus_bus" depart="30.15" departLane="best" from="-698104774#2" to="-263935807#7"/>
    <trip id="bus206" type="bus_bus" depart="30.30" departLane="best" departSpeed="max" from="833357428" to="833356751"/>
    <trip id="bus207" type="bus_bus" depart="30.45" departLane="best" from="260145043#2" to="-22575412#1"/>
    <trip id="bus208" type="bus_bus" depart="30.60" departLane="best" from="23627920#4" to="23525665#4"/>
    <trip id="bus209" type="bus_bus" depart="30.74" departLane="best" from="-23074254#0" to="-453656834#0"/>
    <trip id="bus210" type="bus_bus" depart="30.89" departLane="best" from="618898653#5" to="23285864#1"/>
    <trip id="bus211" type="bus_bus" depart="31.04" departLane="best" from="23525210#1" to="892424155"/>
    <trip id="bus212" type="bus_bus" depart="31.18" departLane="best" from="321138567#2" to="-707873047#0"/>
    <trip id="bus213" type="bus_bus" depart="31.33" departLane="best" from="618898653#2" to="694770860#1"/>
    <trip id="bus214" type="bus_bus" depart="31.48" departLane="best" from="-23276701" to="834052502#1"/>
    <trip id="bus215" type="bus_bus" depart="31.62" departLane="best" departSpeed="max" from="23525200" to="707873036#3"/>
    <trip id="bus217" type="bus_bus" depart="31.92" departLane="best" from="-618898616" to="-321138565#0"/>
    <trip id="bus218" type="bus_bus" depart="32.07" departLane="best" departSpeed="max" from="504084347" to="-23069862#0"/>
    <trip id="bus219" type="bus_bus" depart="32.21" departLane="best" departSpeed="max" from="-892424148#2" to="23525333#1"/>
    <trip id="bus222" type="bus_bus" depart="32.65" departLane="best" departSpeed="max" from="-1113174355" to="833357438#3"/>
    <trip id="bus223" type="bus_bus" depart="32.80" departLane="best" departSpeed="max" from="-22575354#21" to="321138546#12"/>
    <trip id="bus224" type="bus_bus" depart="32.95" departLane="best" from="1005013666#1" to="618898653#2"/>
    <trip id="bus225" type="bus_bus" depart="33.10" departLane="best" from="-22742466#3" to="-321137986#6"/>
    <trip id="bus226" type="bus_bus" depart="33.24" departLane="best" from="-22575354#7" to="1113174356#2"/>
    <trip id="bus227" type="bus_bus" depart="33.39" departLane="best" from="241604571#3-AddedOnRampEdge" to="453656782#0"/>
    <trip id="bus228" type="bus_bus" depart="33.54" departLane="best" from="453656781#1" to="-23525177"/>
    <trip id="bus229" type="bus_bus" depart="33.68" departLane="best" from="-321137979" to="-23525177"/>
    <trip id="bus230" type="bus_bus" depart="33.83" departLane="best" departSpeed="max" from="-983655228" to="321138548#3"/>
    <trip id="bus231" type="bus_bus" depart="33.98" departLane="best" from="-618898658" to="-23285721#1"/>
    <trip id="bus233" type="bus_bus" depart="34.27" departLane="best" departSpeed="max" from="208837108#0" to="-453656788#0"/>
    <trip id="bus234" type="bus_bus" depart="34.42" departLane="best" departSpeed="max" from="833357442" to="210551738#3-AddedOffRampEdge"/>
    <trip id="bus235" type="bus_bus" depart="34.57" departLane="best" from="241602227#0" to="-23525233#0"/>
    <trip id="bus236" type="bus_bus" depart="34.71" departLane="best" from="647888633#0" to="1152339622"/>
    <trip id="bus237" type="bus_bus" depart="34.86" departLane="best" from="647888639#1" to="22742478#1-AddedOnRampEdge"/>
    <trip id="bus239" type="bus_bus" depart="35.16" departLane="best" from="321137975#11" to="-208855900#1"/>
    <trip id="bus240" type="bus_bus" depart="35.30" departLane="best" departSpeed="max" from="453656795" to="833357415#1"/>
    <trip id="bus241" type="bus_bus" depart="35.45" departLane="best" from="-208856390#1" to="23525676#0"/>
    <trip id="bus242" type="bus_bus" depart="35.60" departLane="best" from="-208837099#2" to="-23525676#2"/>
    <trip id="bus244" type="bus_bus" depart="35.89" departLane="best" departSpeed="max" from="941556496" to="-23525170"/>
    <trip id="bus245" type="bus_bus" depart="36.04" departLane="best" departSpeed="max" from="321137987" to="-23525210#3"/>
    <trip id="bus246" type="bus_bus" depart="36.18" departLane="best" from="337234311#4" to="-321138545#3"/>
    <trip id="bus248" type="bus_bus" depart="36.48" departLane="best" from="892424159#0" to="-618898653#0"/>
    <trip id="bus249" type="bus_bus" depart="36.63" departLane="best" departSpeed="max" from="23285735#0" to="23525326#1"/>
    <trip id="bus250" type="bus_bus" depart="36.77" departLane="best" from="-321138546#12" to="-321137975#9"/>
    <trip id="bus251" type="bus_bus" depart="36.92" departLane="best" from="-321137968#1" to="-22575412#0"/>
    <trip id="bus252" type="bus_bus" depart="37.07" departLane="best" from="-1085706110#1" to="-941556496"/>
    <trip id="bus253" type="bus_bus" depart="37.21" departLane="best" from="22742478#2" to="-618889951#0"/>
    <trip id="bus254" type="bus_bus" depart="37.36" departLane="best" from="-337234312#2" to="-321137982#1"/>
    <trip id="bus256" type="bus_bus" depart="37.66" departLane="best" from="23525664#0" to="833357420#2"/>
    <trip id="bus257" type="bus_bus" depart="37.80" departLane="best" from="-833357426#0" to="210551736#13"/>
    <trip id="bus258" type="bus_bus" depart="37.95" departLane="best" departSpeed="max" from="23525270" to="817878997#1"/>
    <trip id="bus259" type="bus_bus" depart="38.10" departLane="best" from="-453656836#0" to="22575354#2"/>
    <trip id="bus260" type="bus_bus" depart="38.24" departLane="best" from="321137975#19" to="22575457#4"/>
    <trip id="bus261" type="bus_bus" depart="38.39" departLane="best" from="633827327" to="-23525210#1"/>
    <trip id="bus262" type="bus_bus" depart="38.54" departLane="best" from="23581305#1" to="-321137975#18"/>
    <trip id="bus263" type="bus_bus" depart="38.69" departLane="best" from="833357412" to="1269099340"/>
    <trip id="bus264" type="bus_bus" depart="38.83" departLane="best" from="1085706110#1" to="22742466#6"/>
    <trip id="bus265" type="bus_bus" depart="38.98" departLane="best" departSpeed="max" from="-1269099340" to="-833357443"/>
    <trip id="bus266" type="bus_bus" depart="39.13" departLane="best" from="-707873044#0" to="-337234312#1"/>
    <trip id="bus267" type="bus_bus" depart="39.27" departLane="best" from="22575412#8" to="834052502#1"/>
    <trip id="bus268" type="bus_bus" depart="39.42" departLane="best" departSpeed="max" from="618889951#0" to="22742478#14"/>