<?xml version="1.0" encoding="UTF-8"?>

<!-- generated on 2024-12-09 18:15:27.788659 by osmWebWizard.py v1_21_0+0000-d7b3b481c43
<configuration>
    <net-file value="C:\Users\salar\Sumo\2024-12-09-18-14-24\osm.net.xml.gz"/>
    <output-trip-file value="C:\Users\salar\Sumo\2024-12-09-18-14-24\osm.passenger.trips.xml"/>
    <route-file value="C:\Users\salar\Sumo\2024-12-09-18-14-24\osm.passenger.rou.xml"/>
    <prefix value="veh"/>
    <trip-attributes value="departLane=&quot;best&quot;"/>
    <fringe-start-attributes value="departSpeed=&quot;max&quot;"/>
    <vehicle-class value="passenger"/>
    <lanes value="True"/>
    <fringe-factor value="5"/>
    <allow-fringe.min-length value="1000.0"/>
    <via-edge-types value="highway.motorway,highway.motorway_link,highway.trunk_link,highway.primary_link,highway.secondary_link,highway.tertiary_link"/>
    <min-distance value="300.0"/>
    <min-distance.fringe value="10.0"/>
    <remove-loops value="True"/>
    <validate value="True"/>
    <insertion-density value="199.0"/>
</configuration>
-->

<!-- generated on 2024-12-09 18:15:20 by Eclipse SUMO duarouter Version 1.21.0
<duarouterConfiguration xmlns:xsi="http://www.w3.org/2001/XMLSchema-instance" xsi:noNamespaceSchemaLocation="http://sumo.dlr.de/xsd/duarouterConfiguration.xsd">

    <input>
        <net-file value="C:\Users\salar\Sumo\2024-12-09-18-14-24\osm.net.xml.gz"/>
        <route-files value="C:\Users\salar\Sumo\2024-12-09-18-14-24\osm.passenger.trips.xml"/>
    </input>

    <output>
        <output-file value="C:\Users\salar\Sumo\2024-12-09-18-14-24\osm.passenger.trips.xml.tmp"/>
        <alternatives-output value="NUL"/>
        <write-trips value="true"/>
    </output>

    <processing>
        <remove-loops value="true"/>
    </processing>

    <time>
        <begin value="0.0"/>
        <end value="3600.0"/>
    </time>

    <report>
        <no-warnings value="true"/>
        <ignore-errors value="true"/>
        <no-step-log value="true"/>
    </report>

</duarouterConfiguration>
-->

<routes xmlns:xsi="http://www.w3.org/2001/XMLSchema-instance" xsi:noNamespaceSchemaLocation="http://sumo.dlr.de/xsd/routes_file.xsd">
    <vType id="veh_passenger" vClass="passenger"/>
    <trip id="veh0" type="veh_passenger" depart="0.00" departLane="best" departSpeed="max" from="23525250" to="-208837096"/>
    <trip id="veh1" type="veh_passenger" depart="0.15" departLane="best" from="-618898653#4" to="321138545#4"/>
    <trip id="veh2" type="veh_passenger" depart="0.29" departLane="best" departSpeed="max" from="28485681#0" to="263935657#1"/>
    <trip id="veh3" type="veh_passenger" depart="0.44" departLane="best" from="707873044#1" to="-23069862#5"/>
    <trip id="veh4" type="veh_passenger" depart="0.59" departLane="best" departSpeed="max" from="-833357431#1" to="-208837100#1"/>
    <trip id="veh5" type="veh_passenger" depart="0.74" departLane="best" from="-321140389#0" to="208837098#5"/>
    <trip id="veh6" type="veh_passenger" depart="0.88" departLane="best" departSpeed="max" from="-1120792376" to="-321137973#1"/>
    <trip id="veh7" type="veh_passenger" depart="1.03" departLane="best" from="23525570#3" to="210551738#16"/>
    <trip id="veh8" type="veh_passenger" depart="1.18" departLane="best" from="-323406159#0" to="23285723#0"/>
    <trip id="veh9" type="veh_passenger" depart="1.32" departLane="best" from="-444137814#17" to="321137970#6"/>
    <trip id="veh10" type="veh_passenger" depart="1.47" departLane="best" from="-742032238" to="-23525695#0"/>
    <trip id="veh11" type="veh_passenger" depart="1.62" departLane="best" departSpeed="max" from="833357425" to="-707873038#0"/>
    <trip id="veh12" type="veh_passenger" depart="1.77" departLane="best" from="-23033820" to="23276636#1"/>
    <trip id="veh13" type="veh_passenger" depart="1.91" departLane="best" from="618898643#0" to="-23525210#3"/>
    <trip id="veh14" type="veh_passenger" depart="2.06" departLane="best" from="444137814#2" to="321138548#2"/>
    <trip id="veh15" type="veh_passenger" depart="2.21" departLane="best" departSpeed="max" from="208856046" to="837265387#0"/>
    <trip id="veh16" type="veh_passenger" depart="2.35" departLane="best" from="-817878988#2" to="210551738#8"/>
    <trip id="veh17" type="veh_passenger" depart="2.50" departLane="best" departSpeed="max" from="453656835#0" to="23525594#4"/>
    <trip id="veh18" type="veh_passenger" depart="2.65" departLane="best" departSpeed="max" from="633827329" to="23069187#1"/>
    <trip id="veh19" type="veh_passenger" depart="2.79" departLane="best" from="241604571#6" to="-208855893#0"/>
    <trip id="veh20" type="veh_passenger" depart="2.94" departLane="best" from="-337234312#3" to="-321137971#8"/>
    <trip id="veh21" type="veh_passenger" depart="3.09" departLane="best" from="-22575354#12" to="-321138559#0"/>
    <trip id="veh22" type="veh_passenger" depart="3.24" departLane="best" from="-23074254#4" to="-453656834#1"/>
    <trip id="veh23" type="veh_passenger" depart="3.38" departLane="best" departSpeed="max" from="23525233#0" to="-754731729#0"/>
    <trip id="veh25" type="veh_passenger" depart="3.68" departLane="best" from="-618898632" to="833357420#2"/>
    <trip id="veh26" type="veh_passenger" depart="3.82" departLane="best" from="23525557#3" to="23525348#1"/>
    <trip id="veh27" type="veh_passenger" depart="3.97" departLane="best" from="-321137968#1" to="321138548#0"/>
    <trip id="veh28" type="veh_passenger" depart="4.12" departLane="best" from="263935807#6" to="817878993#3"/>
    <trip id="veh29" type="veh_passenger" depart="4.27" departLane="best" from="892424154" to="23627920#1"/>
    <trip id="veh30" type="veh_passenger" depart="4.41" departLane="best" departSpeed="max" from="210551738#0" to="263935810#0"/>
    <trip id="veh31" type="veh_passenger" depart="4.56" departLane="best" departSpeed="max" from="618898622#0" to="453656794#0"/>
    <trip id="veh32" type="veh_passenger" depart="4.71" departLane="best" from="337234313#2" to="208837100#7"/>
    <trip id="veh33" type="veh_passenger" depart="4.85" departLane="best" from="-707873039#0" to="453656782#2"/>
    <trip id="veh34" type="veh_passenger" depart="5.00" departLane="best" departSpeed="max" from="-321138549#2" to="-833357431#0"/>
    <trip id="veh35" type="veh_passenger" depart="5.15" departLane="best" from="647888639#3" to="-633827345"/>
    <trip id="veh36" type="veh_passenger" depart="5.30" departLane="best" from="23525594#6" to="-833357416"/>
    <trip id="veh37" type="veh_passenger" depart="5.44" departLane="best" from="742032248#0" to="1085706115"/>
    <trip id="veh38" type="veh_passenger" depart="5.59" departLane="best" from="-618898624" to="-337234312#0"/>
    <trip id="veh39" type="veh_passenger" depart="5.74" departLane="best" from="210551738#14" to="-444137819#1"/>
    <trip id="veh40" type="veh_passenger" depart="5.88" departLane="best" from="-22742466#11" to="-817870810"/>
    <trip id="veh41" type="veh_passenger" depart="6.03" departLane="best" from="-817879008#0" to="-321137986#7"/>
    <trip id="veh42" type="veh_passenger" depart="6.18" departLane="best" from="-983655231#1" to="208837100#2"/>
    <trip id="veh43" type="veh_passenger" depart="6.32" departLane="best" from="-22742466#3" to="-208855895#0"/>
    <trip id="veh44" type="veh_passenger" depart="6.47" departLane="best" from="23285735#1" to="23525676#3"/>
    <trip id="veh45" type="veh_passenger" depart="6.62" departLane="best" departSpeed="max" from="337234310#0" to="-833357441"/>
    <trip id="veh46" type="veh_passenger" depart="6.77" departLane="best" from="-208855892" to="817878999#1"/>
    <trip id="veh47" type="veh_passenger" depart="6.91" departLane="best" departSpeed="max" from="983655229#0" to="208966902#10"/>
    <trip id="veh48" type="veh_passenger" depart="7.06" departLane="best" from="1113174356#1" to="321137986#7"/>
    <trip id="veh49" type="veh_passenger" depart="7.21" departLane="best" from="23525743#1" to="210551736#3"/>
    <trip id="veh51" type="veh_passenger" depart="7.50" departLane="best" departSpeed="max" from="-23285857#2" to="837265387#0"/>
    <trip id="veh53" type="veh_passenger" depart="7.80" departLane="best" from="647888639#2" to="-453656779#0"/>
    <trip id="veh54" type="veh_passenger" depart="7.94" departLane="best" departSpeed="max" from="1185578190" to="-263935657#1"/>
    <trip id="veh55" type="veh_passenger" depart="8.09" departLane="best" from="-647888643#0" to="23581305#1"/>
    <trip id="veh56" type="veh_passenger" depart="8.24" departLane="best" from="-23276678" to="-23525687"/>
    <trip id="veh57" type="veh_passenger" depart="8.38" departLane="best" departSpeed="max" from="321137982#0" to="210551738#1"/>
    <trip id="veh58" type="veh_passenger" depart="8.53" departLane="best" from="321138546#7" to="208966902#2"/>
    <trip id="veh59" type="veh_passenger" depart="8.68" departLane="best" from="-1085706109#0" to="-647888638#1"/>
    <trip id="veh60" type="veh_passenger" depart="8.83" departLane="best" departSpeed="max" from="-1120792365" to="833357411#1"/>
    <trip id="veh61" type="veh_passenger" depart="8.97" departLane="best" from="647888645" to="707873036#1"/>
    <trip id="veh62" type="veh_passenger" depart="9.12" departLane="best" from="-698104774#5" to="208856390#1"/>
    <trip id="veh63" type="veh_passenger" depart="9.27" departLane="best" from="647888643#0" to="833357435"/>
    <trip id="veh64" type="veh_passenger" depart="9.41" departLane="best" from="-22575354#6" to="1269099337"/>
    <trip id="veh65" type="veh_passenger" depart="9.56" departLane="best" from="-208855898#2" to="444137814#16"/>
    <trip id="veh67" type="veh_passenger" depart="9.86" departLane="best" departSpeed="max" from="-983655229#2" to="-260145042#2"/>
    <trip id="veh68" type="veh_passenger" depart="10.00" departLane="best" from="-321140391#0" to="742032247#1"/>
    <trip id="veh69" type="veh_passenger" depart="10.15" departLane="best" departSpeed="max" from="208856050" to="321138548#2"/>
    <trip id="veh70" type="veh_passenger" depart="10.30" departLane="best" from="-321138545#3" to="-633827333"/>
    <trip id="veh71" type="veh_passenger" depart="10.44" departLane="best" departSpeed="max" from="983655229#0" to="241604571#11-AddedOnRampEdge"/>
    <trip id="veh72" type="veh_passenger" depart="10.59" departLane="best" departSpeed="max" from="-834052501" to="208838653#1"/>
    <trip id="veh73" type="veh_passenger" depart="10.74" departLane="best" from="23525240" to="-321138545#9"/>
    <trip id="veh74" type="veh_passenger" depart="10.88" departLane="best" from="-742032237#0" to="23285721#0"/>
    <trip id="veh75" type="veh_passenger" depart="11.03" departLane="best" from="-337234314#2" to="-321137987"/>
    <trip id="veh76" type="veh_passenger" depart="11.18" departLane="best" from="-208856388#0" to="23525682#5"/>
    <trip id="veh77" type="veh_passenger" depart="11.33" departLane="best" from="-337234313#2" to="817878992"/>
    <trip id="veh78" type="veh_passenger" depart="11.47" departLane="best" from="633827327" to="22575354#5"/>
    <trip id="veh79" type="veh_passenger" depart="11.62" departLane="best" from="-444137814#17" to="260145042#0"/>
    <trip id="veh80" type="veh_passenger" depart="11.77" departLane="best" from="-321138561#2" to="-23525270"/>
    <trip id="veh81" type="veh_passenger" depart="11.91" departLane="best" departSpeed="max" from="817879004" to="22742466#9"/>
    <trip id="veh82" type="veh_passenger" depart="12.06" departLane="best" departSpeed="max" from="-983655223" to="555847492"/>
    <trip id="veh83" type="veh_passenger" depart="12.21" departLane="best" from="-444137814#21" to="-308915563#1"/>
    <trip id="veh84" type="veh_passenger" depart="12.36" departLane="best" from="23074249#12" to="834052500#1"/>
    <trip id="veh85" type="veh_passenger" depart="12.50" departLane="best" departSpeed="max" from="-833357435" to="1113174357#1"/>
    <trip id="veh86" type="veh_passenger" depart="12.65" departLane="best" from="263935807#8" to="263935513#5"/>
    <trip id="veh87" type="veh_passenger" depart="12.80" departLane="best" from="-837265370#0" to="-23285721#1"/>
    <trip id="veh88" type="veh_passenger" depart="12.94" departLane="best" from="-833356747#0" to="-707873040#1"/>
    <trip id="veh89" type="veh_passenger" depart="13.09" departLane="best" departSpeed="max" from="633827329" to="-337234313#1"/>
    <trip id="veh91" type="veh_passenger" depart="13.39" departLane="best" departSpeed="max" from="-833357431#1" to="-453656835#0"/>
    <trip id="veh92" type="veh_passenger" depart="13.53" departLane="best" from="-453656782#2" to="817879008#2"/>
    <trip id="veh93" type="veh_passenger" depart="13.68" departLane="best" from="-834052504" to="742032237#0"/>
    <trip id="veh94" type="veh_passenger" depart="13.83" departLane="best" from="210551736#10" to="-208856046"/>
    <trip id="veh96" type="veh_passenger" depart="14.12" departLane="best" departSpeed="max" from="833357437" to="833356747#1"/>
    <trip id="veh97" type="veh_passenger" depart="14.27" departLane="best" departSpeed="max" from="618898644" to="-23525743#0"/>
    <trip id="veh98" type="veh_passenger" depart="14.42" departLane="best" from="1085706114#2" to="-321137982#3"/>
    <trip id="veh100" type="veh_passenger" depart="14.71" departLane="best" from="-321140391#0" to="555847492"/>
    <trip id="veh101" type="veh_passenger" depart="14.86" departLane="best" departSpeed="max" from="-892424148#2" to="-833357441"/>
    <trip id="veh102" type="veh_passenger" depart="15.00" departLane="best" departSpeed="max" from="833357425" to="983655228"/>
    <trip id="veh103" type="veh_passenger" depart="15.15" departLane="best" departSpeed="max" from="210551738#0" to="321137985#3"/>
    <trip id="veh104" type="veh_passenger" depart="15.30" departLane="best" from="-260145042#2" to="-618898643#1"/>
    <trip id="veh105" type="veh_passenger" depart="15.44" departLane="best" departSpeed="max" from="833357437" to="23069862#1"/>
    <trip id="veh106" type="veh_passenger" depart="15.59" departLane="best" from="-208856390#1" to="-337234311#1"/>
    <trip id="veh107" type="veh_passenger" depart="15.74" departLane="best" from="-208837102#2" to="23074254#1"/>
    <trip id="veh108" type="veh_passenger" depart="15.89" departLane="best" from="208827150#2" to="719013032"/>
    <trip id="veh109" type="veh_passenger" depart="16.03" departLane="best" from="-263935656#3" to="834052502#0"/>
    <trip id="veh110" type="veh_passenger" depart="16.18" departLane="best" from="-22575354#12" to="-263935809#0"/>
    <trip id="veh111" type="veh_passenger" depart="16.33" departLane="best" departSpeed="max" from="23069176#0" to="263935656#2"/>
    <trip id="veh113" type="veh_passenger" depart="16.62" departLane="best" from="707873040#3" to="-337234311#4"/>
    <trip id="veh114" type="veh_passenger" depart="16.77" departLane="best" departSpeed="max" from="23069176#0" to="23525594#6"/>
    <trip id="veh115" type="veh_passenger" depart="16.92" departLane="best" from="-833357430#0" to="23074249#9"/>
    <trip id="veh116" type="veh_passenger" depart="17.06" departLane="best" departSpeed="max" from="208837108#0" to="833357420#1"/>
    <trip id="veh117" type="veh_passenger" depart="17.21" departLane="best" from="-321138546#11" to="321137985#1"/>
    <trip id="veh118" type="veh_passenger" depart="17.36" departLane="best" from="-444137814#19" to="-833357416"/>
    <trip id="veh119" type="veh_passenger" depart="17.50" departLane="best" departSpeed="max" from="23525701#0" to="-618898647#3"/>
    <trip id="veh120" type="veh_passenger" depart="17.65" departLane="best" from="-337234309#2" to="337234313#2"/>
    <trip id="veh121" type="veh_passenger" depart="17.80" departLane="best" from="-208856390#1" to="1085706114#1"/>
    <trip id="veh122" type="veh_passenger" depart="17.95" departLane="best" from="-208856391#1" to="-321137982#1"/>
    <trip id="veh123" type="veh_passenger" depart="18.09" departLane="best" from="-321140391#0" to="833357419#1"/>
    <trip id="veh124" type="veh_passenger" depart="18.24" departLane="best" from="694770861" to="751319503"/>
    <trip id="veh126" type="veh_passenger" depart="18.53" departLane="best" from="453659337" to="-321137975#11"/>
    <trip id="veh127" type="veh_passenger" depart="18.68" departLane="best" from="23285725#0" to="892424156#1"/>
    <trip id="veh128" type="veh_passenger" depart="18.83" departLane="best" from="23525594#2" to="1120792364"/>
    <trip id="veh129" type="veh_passenger" depart="18.97" departLane="best" from="453656785#1" to="-618898647#2"/>
    <trip id="veh130" type="veh_passenger" depart="19.12" departLane="best" from="23525681#1" to="833357424#0"/>
    <trip id="veh131" type="veh_passenger" depart="19.27" departLane="best" from="-23525665#0" to="-23525170"/>
    <trip id="veh132" type="veh_passenger" depart="19.42" departLane="best" from="-23285729#0" to="210551738#8-AddedOffRampEdge"/>
    <trip id="veh133" type="veh_passenger" depart="19.56" departLane="best" from="-618898647#2" to="-23525233#1"/>
    <trip id="veh134" type="veh_passenger" depart="19.71" departLane="best" from="260145043#1" to="-321137975#16"/>
    <trip id="veh135" type="veh_passenger" depart="19.86" departLane="best" from="23525210#2" to="-453656780#0"/>
    <trip id="veh136" type="veh_passenger" depart="20.00" departLane="best" from="618898634" to="-23074249#3"/>
    <trip id="veh137" type="veh_passenger" depart="20.15" departLane="best" departSpeed="max" from="-833357435" to="-453656794#1"/>
    <trip id="veh138" type="veh_passenger" depart="20.30" departLane="best" departSpeed="max" from="-1085706110#4" to="453656784"/>
    <trip id="veh139" type="veh_passenger" depart="20.45" departLane="best" departSpeed="max" from="23525233#0" to="-444137814#9"/>
    <trip id="veh140" type="veh_passenger" depart="20.59" departLane="best" departSpeed="max" from="-833357438#3" to="-1120792366"/>
    <trip id="veh141" type="veh_passenger" depart="20.74" departLane="best" from="-208966902#2" to="754731731#2"/>
    <trip id="veh142" type="veh_passenger" depart="20.89" departLane="best" from="719013038#1" to="210551738#17"/>
    <trip id="veh143" type="veh_passenger" depart="21.03" departLane="best" departSpeed="max" from="504084347" to="23074249#5"/>
    <trip id="veh144" type="veh_passenger" depart="21.18" departLane="best" from="-23525743#1" to="-23525250"/>
    <trip id="veh145" type="veh_passenger" depart="21.33" departLane="best" from="-716757907#1" to="321137980#0"/>
    <trip id="veh146" type="veh_passenger" depart="21.48" departLane="best" from="-453656782#2" to="-23285731#1"/>
    <trip id="veh147" type="veh_passenger" depart="21.62" departLane="best" from="321138548#1" to="754731731#2"/>
    <trip id="veh148" type="veh_passenger" depart="21.77" departLane="best" departSpeed="max" from="-833357411#1" to="23525604"/>
    <trip id="veh149" type="veh_passenger" depart="21.92" departLane="best" from="-260145042#2" to="-833357412"/>
    <trip id="veh150" type="veh_passenger" depart="22.06" departLane="best" from="-633827343#1" to="892424148#2"/>
    <trip id="veh151" type="veh_passenger" depart="22.21" departLane="best" from="444137814#4" to="754731729#3"/>
    <trip id="veh152" type="veh_passenger" depart="22.36" departLane="best" from="-1120792374" to="321138561#5"/>
    <trip id="veh153" type="veh_passenger" depart="22.51" departLane="best" departSpeed="max" from="444137814#0" to="742032240"/>
    <trip id="veh154" type="veh_passenger" depart="22.65" departLane="best" from="444137814#4" to="453656782#0"/>
    <trip id="veh155" type="veh_passenger" depart="22.80" departLane="best" from="321138567#1" to="-23285736#0"/>
    <trip id="veh156" type="veh_passenger" depart="22.95" departLane="best" from="647888633#1" to="733891187#0"/>
    <trip id="veh157" type="veh_passenger" depart="23.09" departLane="best" departSpeed="max" from="-337234309#4" to="647888637"/>
    <trip id="veh158" type="veh_passenger" depart="23.24" departLane="best" departSpeed="max" from="-892424152" to="-618898659#0"/>
    <trip id="veh159" type="veh_passenger" depart="23.39" departLane="best" from="337234311#3" to="-321138546#5"/>
    <trip id="veh160" type="veh_passenger" depart="23.53" departLane="best" departSpeed="max" from="-1120792373" to="-321137970#0"/>
    <trip id="veh161" type="veh_passenger" depart="23.68" departLane="best" from="-716757907#1" to="742032241"/>
    <trip id="veh162" type="veh_passenger" depart="23.83" departLane="best" departSpeed="max" from="833357436#0" to="-453656835#0"/>
    <trip id="veh163" type="veh_passenger" depart="23.98" departLane="best" departSpeed="max" from="23525252" to="-833357420#0"/>
    <trip id="veh164" type="veh_passenger" depart="24.12" departLane="best" departSpeed="max" from="817879016" to="-23525170"/>
    <trip id="veh165" type="veh_passenger" depart="24.27" departLane="best" from="833357439#1" to="-263935657#1"/>
    <trip id="veh166" type="veh_passenger" depart="24.42" departLane="best" from="833357431#0" to="453656782#0"/>
    <trip id="veh167" type="veh_passenger" depart="24.56" departLane="best" from="23074249#8" to="837265386#0"/>
    <trip id="veh168" type="veh_passenger" depart="24.71" departLane="best" from="263935807#7" to="633827343#1"/>
    <trip id="veh169" type="veh_passenger" depart="24.86" departLane="best" from="23074254#2" to="208837100#8"/>
    <trip id="veh170" type="veh_passenger" depart="25.01" departLane="best" from="-817878993#3" to="22742478#8"/>
    <trip id="veh171" type="veh_passenger" depart="25.15" departLane="best" from="-453656794#0" to="-321137975#4"/>
    <trip id="veh173" type="veh_passenger" depart="25.45" departLane="best" departSpeed="max" from="208856050" to="321137986#2"/>
    <trip id="veh174" type="veh_passenger" depart="25.59" departLane="best" from="321137968#1" to="-260145043#1"/>
    <trip id="veh176" type="veh_passenger" depart="25.89" departLane="best" from="23525682#1" to="694770861"/>
    <trip id="veh177" type="veh_passenger" depart="26.04" departLane="best" departSpeed="max" from="-707873038#2" to="715543511"/>
    <trip id="veh178" type="veh_passenger" depart="26.18" departLane="best" from="263935513#3" to="-618898650"/>
    <trip id="veh179" type="veh_passenger" depart="26.33" departLane="best" departSpeed="max" from="-707873035" to="-833357429"/>
    <trip id="veh181" type="veh_passenger" depart="26.62" departLane="best" from="-23525543#4" to="-833357440"/>
    <trip id="veh183" type="veh_passenger" depart="26.92" departLane="best" from="-719013036#2" to="23525576#0"/>
    <trip id="veh184" type="veh_passenger" depart="27.07" departLane="best" from="-1085706109#0" to="-618889951#0"/>
    <trip id="veh185" type="veh_passenger" depart="27.21" departLane="best" departSpeed="max" from="-833357445" to="-23069862#4"/>
    <trip id="veh186" type="veh_passenger" depart="27.36" departLane="best" from="23525594#4" to="1113174356#2"/>
    <trip id="veh187" type="veh_passenger" depart="27.51" departLane="best" departSpeed="max" from="-834052503#1" to="-321137982#2"/>
    <trip id="veh188" type="veh_passenger" depart="27.65" departLane="best" departSpeed="max" from="-983655228" to="817878987#1"/>
    <trip id="veh189" type="veh_passenger" depart="27.80" departLane="best" from="337234311#4" to="-23581305#0"/>
    <trip id="veh190" type="veh_passenger" depart="27.95" departLane="best" from="-22575354#3" to="-208838651#0"/>
    <trip id="veh191" type="veh_passenger" depart="28.09" departLane="best" departSpeed="max" from="23525200" to="-707873036#6"/>
    <trip id="veh192" type="veh_passenger" depart="28.24" departLane="best" from="453656786#2" to="-337234313#0"/>
    <trip id="veh193" type="veh_passenger" depart="28.39" departLane="best" departSpeed="max" from="23525701#0" to="-321138545#9"/>
    <trip id="veh194" type="veh_passenger" depart="28.54" departLane="best" from="-321137986#6" to="-208837096"/>
    <trip id="veh195" type="veh_passenger" depart="28.68" departLane="best" departSpeed="max" from="618898644" to="-22575412#0"/>
    <trip id="veh196" type="veh_passenger" depart="28.83" departLane="best" from="-833357421#1" to="23525682#1"/>
    <trip id="veh197" type="veh_passenger" depart="28.98" departLane="best" from="-321137985#0" to="321137970#3"/>
    <trip id="veh198" type="veh_passenger" depart="29.12" departLane="best" departSpeed="max" from="1120792367" to="-337234310#0"/>
    <trip id="veh199" type="veh_passenger" depart="29.27" departLane="best" from="23525594#8" to="-1113174356#0"/>
    <trip id="veh200" type="veh_passenger" depart="29.42" departLane="best" departSpeed="max" from="321137975#0" to="453656782#0"/>
    <trip id="veh201" type="veh_passenger" depart="29.57" departLane="best" from="-23285728#1" to="-833357443"/>
    <trip id="veh203" type="veh_passenger" depart="29.86" departLane="best" from="-453656782#1" to="715543511"/>
    <trip id="veh204" type="veh_passenger" depart="30.01" departLane="best" departSpeed="max" from="-892424149" to="618898659#1"/>
    <trip id="veh205" type="veh_passenger" depart="30.15" departLane="best" departSpeed="max" from="23525687" to="892424156#1"/>
    <trip id="veh206" type="veh_passenger" depart="30.30" departLane="best" from="-23069187#1" to="833357438#3"/>
    <trip id="veh207" type="veh_passenger" depart="30.45" departLane="best" from="707873043" to="-23525559#0"/>
    <trip id="veh208" type="veh_passenger" depart="30.60" departLane="best" from="453656835#2" to="210551738#3"/>
    <trip id="veh209" type="veh_passenger" depart="30.74" departLane="best" departSpeed="max" from="715543512" to="323406160#3"/>
    <trip id="veh210" type="veh_passenger" depart="30.89" departLane="best" from="453656781#1" to="23525767#0"/>
    <trip id="veh212" type="veh_passenger" depart="31.18" departLane="best" departSpeed="max" from="23525170" to="-453656791#0"/>
    <trip id="veh213" type="veh_passenger" depart="31.33" departLane="best" from="-208966902#8" to="-563535559"/>
    <trip id="veh214" type="veh_passenger" depart="31.48" departLane="best" from="-618898647#0" to="-647888630"/>
    <trip id="veh215" type="veh_passenger" depart="31.62" departLane="best" from="208856052" to="-23525540#0"/>
    <trip id="veh216" type="veh_passenger" depart="31.77" departLane="best" departSpeed="max" from="-337234314#6" to="-321137968#3"/>
    <trip id="veh217" type="veh_passenger" depart="31.92" departLane="best" from="241604571#8" to="208966902#6"/>
    <trip id="veh218" type="veh_passenger" depart="32.07" departLane="best" from="-833357413#1" to="210551738#13"/>
    <trip id="veh219" type="veh_passenger" depart="32.21" departLane="best" from="-833357423#1" to="-321137975#3"/>
    <trip id="veh220" type="veh_passenger" depart="32.36" departLane="best" from="833357431#0" to="817878990#3"/>
    <trip id="veh221" type="veh_passenger" depart="32.51" departLane="best" from="22742466#0" to="321137970#1"/>
    <trip id="veh222" type="veh_passenger" depart="32.65" departLane="best" from="618898659#0" to="444137814#4"/>
    <trip id="veh223" type="veh_passenger" depart="32.80" departLane="best" departSpeed="max" from="-742032248#3" to="337234314#4"/>
    <trip id="veh225" type="veh_passenger" depart="33.10" departLane="best" from="-833357427" to="-337234310#2"/>
    <trip id="veh226" type="veh_passenger" depart="33.24" departLane="best" from="208966902#13" to="-23525210#2"/>
    <trip id="veh227" type="veh_passenger" depart="33.39" departLane="best" from="-323406159#0" to="-321137986#7"/>
    <trip id="veh229" type="veh_passenger" depart="33.68" departLane="best" from="-733891187#0" to="263935807#0"/>
    <trip id="veh230" type="veh_passenger" depart="33.83" departLane="best" departSpeed="max" from="-833356747#1" to="-23525738#0"/>
    <trip id="veh231" type="veh_passenger" depart="33.98" departLane="best" from="-892424160#0" to="-23525250"/>
    <trip id="veh232" type="veh_passenger" depart="34.13" departLane="best" departSpeed="max" from="23285752#0" to="-208837098#2"/>
    <trip id="veh233" type="veh_passenger" depart="34.27" departLane="best" departSpeed="max" from="-817879002" to="22575412#4"/>
    <trip id="veh234" type="veh_passenger" depart="34.42" departLane="best" departSpeed="max" from="-1120792377" to="23627931#13"/>
    <trip id="veh235" type="veh_passenger" depart="34.57" departLane="best" departSpeed="max" from="-23525665#4" to="1113174355"/>
    <trip id="veh236" type="veh_passenger" depart="34.71" departLane="best" from="-208837098#2" to="817878993#2"/>
    <trip id="veh237" type="veh_passenger" depart="34.86" departLane="best" from="-321138551" to="-647888642"/>
    <trip id="veh239" type="veh_passenger" depart="35.16" departLane="best" from="321137975#11" to="707873036#2"/>
    <trip id="veh240" type="veh_passenger" depart="35.30" departLane="best" from="-453656786#2" to="-23033820"/>
    <trip id="veh241" type="veh_passenger" depart="35.45" departLane="best" departSpeed="max" from="-1120792365" to="210551738#1"/>
    <trip id="veh242" type="veh_passenger" depart="35.60" departLane="best" from="-323406160#1" to="-719013031"/>
    <trip id="veh243" type="veh_passenger" depart="35.74" departLane="best" from="23525570#3" to="504084353#1"/>
    <trip id="veh244" type="veh_passenger" depart="35.89" departLane="best" from="23525576#1" to="337234314#6"/>
    <trip id="veh245" type="veh_passenger" depart="36.04" departLane="best" departSpeed="max" from="833357417" to="-321137975#0"/>
    <trip id="veh246" type="veh_passenger" depart="36.18" departLane="best" departSpeed="max" from="-1120792365" to="-23525687"/>
    <trip id="veh247" type="veh_passenger" depart="36.33" departLane="best" from="-23525543#2" to="-260145042#1"/>
    <trip id="veh250" type="veh_passenger" depart="36.77" departLane="best" departSpeed="max" from="-263935811#3" to="23525333#0"/>
    <trip id="veh251" type="veh_passenger" depart="36.92" departLane="best" from="321137971#7" to="-23525154"/>
    <trip id="veh252" type="veh_passenger" depart="37.07" departLane="best" departSpeed="max" from="453656788#0" to="834052503#1"/>