<?xml version="1.0" encoding="UTF-8"?>

<!-- generated on 2024-12-09 18:15:46.793245 by osmWebWizard.py v1_21_0+0000-d7b3b481c43
<configuration>
    <net-file value="C:\Users\salar\Sumo\2024-12-09-18-14-24\osm.net.xml.gz"/>
    <output-trip-file value="C:\Users\salar\Sumo\2024-12-09-18-14-24\osm.truck.trips.xml"/>
    <route-file value="C:\Users\salar\Sumo\2024-12-09-18-14-24\osm.truck.rou.xml"/>
    <prefix value="truck"/>
    <trip-attributes value="departLane=&quot;best&quot;"/>
    <fringe-start-attributes value="departSpeed=&quot;max&quot;"/>
    <vehicle-class value="truck"/>
    <fringe-factor value="5"/>
    <vclass value="truck"/>
    <via-edge-types value="highway.motorway,highway.motorway_link,highway.trunk_link,highway.primary_link,highway.secondary_link,highway.tertiary_link"/>
    <min-distance value="600.0"/>
    <min-distance.fringe value="10.0"/>
    <remove-loops value="True"/>
    <validate value="True"/>
    <insertion-density value="199.0"/>
</configuration>
-->

<!-- generated on 2024-12-09 18:15:40 by Eclipse SUMO duarouter Version 1.21.0
<duarouterConfiguration xmlns:xsi="http://www.w3.org/2001/XMLSchema-instance" xsi:noNamespaceSchemaLocation="http://sumo.dlr.de/xsd/duarouterConfiguration.xsd">

    <input>
        <net-file value="C:\Users\salar\Sumo\2024-12-09-18-14-24\osm.net.xml.gz"/>
        <route-files value="C:\Users\salar\Sumo\2024-12-09-18-14-24\osm.truck.trips.xml"/>
    </input>

    <output>
        <output-file value="C:\Users\salar\Sumo\2024-12-09-18-14-24\osm.truck.trips.xml.tmp"/>
        <alternatives-output value="NUL"/>
        <write-trips value="true"/>
    </output>

    <processing>
        <remove-loops value="true"/>
    </processing>

    <time>
        <begin value="0.0"/>
        <end value="3600.0"/>
    </time>

    <report>
        <no-warnings value="true"/>
        <ignore-errors value="true"/>
        <no-step-log value="true"/>
    </report>

</duarouterConfiguration>
-->

<routes xmlns:xsi="http://www.w3.org/2001/XMLSchema-instance" xsi:noNamespaceSchemaLocation="http://sumo.dlr.de/xsd/routes_file.xsd">
    <vType id="truck_truck" vClass="truck"/>
    <trip id="truck0" type="truck_truck" depart="0.00" departLane="best" departSpeed="max" from="23525233#0" to="-208837096"/>
    <trip id="truck1" type="truck_truck" depart="0.15" departLane="best" departSpeed="max" from="-618898640#1" to="-321137987"/>
    <trip id="truck2" type="truck_truck" depart="0.29" departLane="best" departSpeed="max" from="707873047#0" to="-23069862#0"/>
    <trip id="truck3" type="truck_truck" depart="0.44" departLane="best" departSpeed="max" from="-1120792376" to="-321137971#6"/>
    <trip id="truck4" type="truck_truck" depart="0.59" departLane="best" from="23525348#0" to="210551736#13"/>
    <trip id="truck5" type="truck_truck" depart="0.74" departLane="best" from="321138565#3" to="23276636#2"/>
    <trip id="truck6" type="truck_truck" depart="0.88" departLane="best" from="453656780#1" to="-1113174357#0"/>
    <trip id="truck7" type="truck_truck" depart="1.03" departLane="best" from="444137814#4" to="-321137975#14"/>
    <trip id="truck8" type="truck_truck" depart="1.18" departLane="best" from="-719013037" to="-23525687"/>
    <trip id="truck9" type="truck_truck" depart="1.32" departLane="best" from="-833357427" to="-698104774#2"/>
    <trip id="truck10" type="truck_truck" depart="1.47" departLane="best" from="22742466#2" to="-23074254#2"/>
    <trip id="truck11" type="truck_truck" depart="1.62" departLane="best" from="618898647#2" to="23525154"/>
    <trip id="truck12" type="truck_truck" depart="1.77" departLane="best" from="444137814#9" to="321138561#1"/>
    <trip id="truck13" type="truck_truck" depart="1.91" departLane="best" departSpeed="max" from="208838650" to="837265387#2"/>
    <trip id="truck14" type="truck_truck" depart="2.06" departLane="best" from="453659325#1" to="23525588"/>
    <trip id="truck15" type="truck_truck" depart="2.21" departLane="best" from="633827344#1" to="22742478#3"/>
    <trip id="truck16" type="truck_truck" depart="2.35" departLane="best" from="337234310#1" to="-504084354"/>
    <trip id="truck17" type="truck_truck" depart="2.50" departLane="best" from="208966902#9" to="-321138548#1"/>
    <trip id="truck18" type="truck_truck" depart="2.65" departLane="best" from="23074249#8" to="-453656791#0"/>
    <trip id="truck19" type="truck_truck" depart="2.79" departLane="best" from="760442529#1" to="-321137975#4"/>
    <trip id="truck20" type="truck_truck" depart="2.94" departLane="best" from="563535559" to="833357423#0"/>
    <trip id="truck21" type="truck_truck" depart="3.09" departLane="best" departSpeed="max" from="23525270" to="23525326#0"/>
    <trip id="truck22" type="truck_truck" depart="3.24" departLane="best" departSpeed="max" from="-263935811#3" to="321138561#0"/>
    <trip id="truck23" type="truck_truck" depart="3.38" departLane="best" from="-263935807#0" to="-817878986"/>
    <trip id="truck24" type="truck_truck" depart="3.53" departLane="best" from="-208966902#10" to="28485681#6"/>
    <trip id="truck25" type="truck_truck" depart="3.68" departLane="best" from="618898638#1" to="504084351#1"/>
    <trip id="truck26" type="truck_truck" depart="3.82" departLane="best" from="-707873036#0" to="-453656780#0"/>
    <trip id="truck27" type="truck_truck" depart="3.97" departLane="best" from="-321138548#0" to="833357431#1"/>
    <trip id="truck28" type="truck_truck" depart="4.12" departLane="best" from="660589669" to="-633827326#2"/>
    <trip id="truck30" type="truck_truck" depart="4.41" departLane="best" from="754731729#0" to="1085706109#1"/>
    <trip id="truck31" type="truck_truck" depart="4.56" departLane="best" departSpeed="max" from="-504084353#1" to="-337234310#0"/>
    <trip id="truck32" type="truck_truck" depart="4.71" departLane="best" from="-210372641" to="-444137814#25"/>
    <trip id="truck33" type="truck_truck" depart="4.85" departLane="best" from="22575457#0" to="817870813"/>
    <trip id="truck34" type="truck_truck" depart="5.00" departLane="best" from="-817879001#0" to="321137985#2"/>
    <trip id="truck35" type="truck_truck" depart="5.15" departLane="best" from="-983655231#1" to="-208827155#0"/>
    <trip id="truck36" type="truck_truck" depart="5.30" departLane="best" from="-23285729#0" to="23525665#4"/>
    <trip id="truck37" type="truck_truck" depart="5.44" departLane="best" from="337234312#1" to="-833357436#0"/>
    <trip id="truck38" type="truck_truck" depart="5.59" departLane="best" from="-208838653#1" to="-817878988#4"/>
    <trip id="truck39" type="truck_truck" depart="5.74" departLane="best" departSpeed="max" from="983655229#0" to="208855893#2"/>
    <trip id="truck40" type="truck_truck" depart="5.88" departLane="best" from="1113174356#1" to="321138546#3"/>
    <trip id="truck41" type="truck_truck" depart="6.03" departLane="best" from="23525722#4" to="208856390#1"/>
    <trip id="truck42" type="truck_truck" depart="6.18" departLane="best" from="563535559" to="23525594#6"/>
    <trip id="truck43" type="truck_truck" depart="6.32" departLane="best" from="23285733#1" to="-833357444"/>
    <trip id="truck44" type="truck_truck" depart="6.47" departLane="best" from="-647888645" to="-444137814#27"/>
    <trip id="truck45" type="truck_truck" depart="6.62" departLane="best" from="-1120792349" to="-263935656#1"/>
    <trip id="truck46" type="truck_truck" depart="6.77" departLane="best" from="-647888635" to="-23525731"/>
    <trip id="truck47" type="truck_truck" depart="6.91" departLane="best" from="23074254#2" to="-23525682#4"/>
    <trip id="truck48" type="truck_truck" depart="7.06" departLane="best" from="-1085706109#0" to="-647888629#1"/>
    <trip id="truck49" type="truck_truck" depart="7.21" departLane="best" departSpeed="max" from="-1120792365" to="833357413#1"/>
    <trip id="truck50" type="truck_truck" depart="7.35" departLane="best" departSpeed="max" from="-656085038" to="-208856388#2"/>
    <trip id="truck51" type="truck_truck" depart="7.50" departLane="best" from="694770862" to="-833357438#0"/>
    <trip id="truck52" type="truck_truck" depart="7.65" departLane="best" departSpeed="max" from="-22575354#21" to="1120792376"/>
    <trip id="truck53" type="truck_truck" depart="7.80" departLane="best" from="321137988" to="-23525233#2"/>
    <trip id="truck54" type="truck_truck" depart="7.94" departLane="best" departSpeed="max" from="-504084353#1" to="742032248#3"/>
    <trip id="truck55" type="truck_truck" depart="8.09" departLane="best" from="-321137986#2" to="-633827323"/>
    <trip id="truck56" type="truck_truck" depart="8.24" departLane="best" from="23525210#1" to="-321138545#0"/>
    <trip id="truck57" type="truck_truck" depart="8.38" departLane="best" departSpeed="max" from="-719013032" to="23276636#0"/>
    <trip id="truck58" type="truck_truck" depart="8.53" departLane="best" from="-337234311#4" to="-321137986#1"/>
    <trip id="truck59" type="truck_truck" depart="8.68" departLane="best" from="-208855898#2" to="23525676#5"/>
    <trip id="truck60" type="truck_truck" depart="8.83" departLane="best" from="-337234311#0" to="817878993#0"/>
    <trip id="truck61" type="truck_truck" depart="8.97" departLane="best" departSpeed="max" from="633827333" to="22575354#18"/>
    <trip id="truck62" type="truck_truck" depart="9.12" departLane="best" departSpeed="max" from="-438953441" to="263935513#5"/>
    <trip id="truck63" type="truck_truck" depart="9.27" departLane="best" departSpeed="max" from="-321138549#2" to="-23525252"/>
    <trip id="truck64" type="truck_truck" depart="9.41" departLane="best" from="817879008#0" to="22742466#2"/>
    <trip id="truck65" type="truck_truck" depart="9.56" departLane="best" departSpeed="max" from="-892424155" to="618898631#0"/>
    <trip id="truck66" type="truck_truck" depart="9.71" departLane="best" from="444137819#0" to="-263935811#1"/>
    <trip id="truck67" type="truck_truck" depart="9.86" departLane="best" from="-23069862#1" to="-833357442"/>
    <trip id="truck68" type="truck_truck" depart="10.00" departLane="best" from="-833357422" to="1085706116"/>
    <trip id="truck69" type="truck_truck" depart="10.15" departLane="best" from="-837265380#0" to="-23276636#1"/>
    <trip id="truck70" type="truck_truck" depart="10.30" departLane="best" from="633827344#1" to="-337234311#1"/>
    <trip id="truck71" type="truck_truck" depart="10.44" departLane="best" from="321137975#5" to="-892424161"/>
    <trip id="truck72" type="truck_truck" depart="10.59" departLane="best" departSpeed="max" from="-833357420#2" to="-453656791#0"/>
    <trip id="truck76" type="truck_truck" depart="11.18" departLane="best" from="618898653#0" to="-23525738#0"/>
    <trip id="truck78" type="truck_truck" depart="11.47" departLane="best" departSpeed="max" from="-817879001#1" to="208856390#0"/>
    <trip id="truck80" type="truck_truck" depart="11.77" departLane="best" departSpeed="max" from="-504084353#1" to="618898626#3"/>
    <trip id="truck81" type="truck_truck" depart="11.91" departLane="best" from="-833357427" to="983655228"/>
    <trip id="truck82" type="truck_truck" depart="12.06" departLane="best" from="-260145040#1" to="-618898626#0"/>
    <trip id="truck83" type="truck_truck" depart="12.21" departLane="best" departSpeed="max" from="833357437" to="23069187#1"/>
    <trip id="truck84" type="truck_truck" depart="12.36" departLane="best" from="-208837100#8" to="-23074249#3"/>
    <trip id="truck85" type="truck_truck" depart="12.50" departLane="best" departSpeed="max" from="1120792366" to="719013036#2"/>
    <trip id="truck86" type="truck_truck" depart="12.65" departLane="best" from="260145043#1" to="834052502#1"/>
    <trip id="truck87" type="truck_truck" depart="12.80" departLane="best" from="-210372641" to="-263935807#8"/>
    <trip id="truck88" type="truck_truck" depart="12.94" departLane="best" from="28485681#4" to="263935807#1"/>
    <trip id="truck89" type="truck_truck" depart="13.09" departLane="best" from="22742478#3" to="23525594#1"/>
    <trip id="truck90" type="truck_truck" depart="13.24" departLane="best" departSpeed="max" from="-833357419#1" to="-23074249#2"/>
    <trip id="truck92" type="truck_truck" depart="13.53" departLane="best" departSpeed="max" from="23525687" to="-618898638#1"/>
    <trip id="truck93" type="truck_truck" depart="13.68" departLane="best" from="-707873036#2" to="438953441"/>
    <trip id="truck94" type="truck_truck" depart="13.83" departLane="best" from="-208856388#0" to="1085706109#0"/>
    <trip id="truck96" type="truck_truck" depart="14.12" departLane="best" departSpeed="max" from="-504084353#1" to="833357419#1"/>
    <trip id="truck97" type="truck_truck" depart="14.27" departLane="best" from="759826067#1" to="-23525695#1"/>
    <trip id="truck98" type="truck_truck" depart="14.42" departLane="best" from="563535559" to="-321137975#6"/>
    <trip id="truck99" type="truck_truck" depart="14.56" departLane="best" from="-23276678" to="892424156#1"/>
    <trip id="truck100" type="truck_truck" depart="14.71" departLane="best" from="453656788#2" to="-618898637"/>
    <trip id="truck101" type="truck_truck" depart="14.86" departLane="best" from="23525665#2" to="833357426#2"/>
    <trip id="truck102" type="truck_truck" depart="15.00" departLane="best" from="23525664#0" to="-23285869#4"/>
    <trip id="truck103" type="truck_truck" depart="15.15" departLane="best" from="-618898635" to="-23525187"/>
    <trip id="truck104" type="truck_truck" depart="15.30" departLane="best" from="263935513#5" to="-321137975#10"/>
    <trip id="truck105" type="truck_truck" depart="15.44" departLane="best" from="23525180" to="-444137814#3"/>
    <trip id="truck106" type="truck_truck" depart="15.59" departLane="best" from="618898646" to="-23074249#0"/>
    <trip id="truck107" type="truck_truck" depart="15.74" departLane="best" from="-833357422" to="-453656788#2"/>
    <trip id="truck108" type="truck_truck" depart="15.89" departLane="best" from="23525210#1" to="-444137814#23"/>
    <trip id="truck109" type="truck_truck" depart="16.03" departLane="best" from="321137971#6" to="210551738#16"/>
    <trip id="truck110" type="truck_truck" depart="16.18" departLane="best" from="-833357430#0" to="-1120792366"/>
    <trip id="truck111" type="truck_truck" depart="16.33" departLane="best" from="-208966902#0" to="-759826067#1"/>
    <trip id="truck112" type="truck_truck" depart="16.47" departLane="best" from="733895008#0" to="210551736#13"/>
    <trip id="truck113" type="truck_truck" depart="16.62" departLane="best" departSpeed="max" from="618889951#0" to="-23074249#1"/>
    <trip id="truck114" type="truck_truck" depart="16.77" departLane="best" departSpeed="max" from="-656085038" to="817878987#0"/>
    <trip id="truck116" type="truck_truck" depart="17.06" departLane="best" from="719013033" to="-321137975#5"/>
    <trip id="truck117" type="truck_truck" depart="17.21" departLane="best" from="-453656779#0" to="-23285725#2"/>
    <trip id="truck118" type="truck_truck" depart="17.36" departLane="best" departSpeed="max" from="-817879006" to="23525594#2"/>
    <trip id="truck119" type="truck_truck" depart="17.50" departLane="best" from="-260145040#0" to="833357415#0"/>
    <trip id="truck120" type="truck_truck" depart="17.65" departLane="best" from="647888628" to="892424148#2"/>
    <trip id="truck121" type="truck_truck" depart="17.80" departLane="best" from="453656782#0" to="754731731#2"/>
    <trip id="truck122" type="truck_truck" depart="17.95" departLane="best" departSpeed="max" from="-1120792373" to="323406160#3"/>
    <trip id="truck123" type="truck_truck" depart="18.09" departLane="best" departSpeed="max" from="-715543510" to="833357418#1"/>
    <trip id="truck124" type="truck_truck" depart="18.24" departLane="best" from="444137814#2" to="742032244#5"/>
    <trip id="truck125" type="truck_truck" depart="18.39" departLane="best" from="453656782#0" to="-444137819#2"/>
    <trip id="truck126" type="truck_truck" depart="18.53" departLane="best" from="647888639#0" to="742032237#1"/>
    <trip id="truck127" type="truck_truck" depart="18.68" departLane="best" from="-321140389#1" to="-647888643#0"/>
    <trip id="truck128" type="truck_truck" depart="18.83" departLane="best" departSpeed="max" from="-1120792373" to="-321137968#0"/>
    <trip id="truck129" type="truck_truck" depart="18.97" departLane="best" from="-707873048#3" to="742032244#5"/>
    <trip id="truck130" type="truck_truck" depart="19.12" departLane="best" from="-833357436#1" to="-453656793#0"/>
    <trip id="truck131" type="truck_truck" depart="19.27" departLane="best" from="23525233#2" to="-833357413#1"/>
    <trip id="truck132" type="truck_truck" depart="19.42" departLane="best" from="-834052500#0" to="208856389"/>
    <trip id="truck134" type="truck_truck" depart="19.71" departLane="best" departSpeed="max" from="833357432#0" to="-444137814#9"/>
    <trip id="truck135" type="truck_truck" depart="19.86" departLane="best" from="-23285725#2" to="-833357444"/>
    <trip id="truck136" type="truck_truck" depart="20.00" departLane="best" from="23074249#2" to="208827155#6"/>
    <trip id="truck137" type="truck_truck" depart="20.15" departLane="best" from="-817878987#1" to="22742478#14"/>
    <trip id="truck139" type="truck_truck" depart="20.45" departLane="best" departSpeed="max" from="-1085706109#1" to="833356747#1"/>
    <trip id="truck140" type="truck_truck" depart="20.59" departLane="best" from="208838651#4" to="321138546#10"/>
    <trip id="truck141" type="truck_truck" depart="20.74" departLane="best" from="321137971#8" to="263935656#2"/>
    <trip id="truck142" type="truck_truck" depart="20.89" departLane="best" departSpeed="max" from="-751319503" to="22575354#15"/>
    <trip id="truck143" type="truck_truck" depart="21.03" departLane="best" from="23525675#1" to="-647888639#2"/>
    <trip id="truck144" type="truck_truck" depart="21.18" departLane="best" from="-660589669" to="-833357421#0"/>
    <trip id="truck145" type="truck_truck" depart="21.33" departLane="best" departSpeed="max" from="-817879002" to="-618898622#1"/>
    <trip id="truck146" type="truck_truck" depart="21.48" departLane="best" from="-23525543#5" to="-833357433#1"/>
    <trip id="truck148" type="truck_truck" depart="21.77" departLane="best" from="719013551#2" to="-23525559#0"/>
    <trip id="truck149" type="truck_truck" depart="21.92" departLane="best" from="-1085706109#0" to="-453659325#0"/>
    <trip id="truck150" type="truck_truck" depart="22.06" departLane="best" departSpeed="max" from="-833357431#1" to="23069187#6"/>
    <trip id="truck152" type="truck_truck" depart="22.36" departLane="best" departSpeed="max" from="-22575354#21" to="208837099#3"/>
    <trip id="truck153" type="truck_truck" depart="22.51" departLane="best" departSpeed="max" from="453656791#0" to="438953441"/>
    <trip id="truck154" type="truck_truck" depart="22.65" departLane="best" departSpeed="max" from="23525695#0" to="-321138545#0"/>
    <trip id="truck155" type="truck_truck" depart="22.80" departLane="best" departSpeed="max" from="-321137985#3" to="208827155#7"/>
    <trip id="truck156" type="truck_truck" depart="22.95" departLane="best" from="618898653#2" to="22575354#6"/>
    <trip id="truck157" type="truck_truck" depart="23.09" departLane="best" departSpeed="max" from="-833357411#1" to="23525676#1"/>
    <trip id="truck158" type="truck_truck" depart="23.24" departLane="best" from="-1085706111#0" to="-323406160#1"/>
    <trip id="truck159" type="truck_truck" depart="23.39" departLane="best" from="23525588" to="-1113174356#0"/>
    <trip id="truck160" type="truck_truck" depart="23.53" departLane="best" from="321137975#23" to="453656788#3"/>
    <trip id="truck161" type="truck_truck" depart="23.68" departLane="best" from="-23285722" to="-833357438#0"/>
    <trip id="truck162" type="truck_truck" depart="23.83" departLane="best" from="208827155#4" to="-208855898#2"/>
    <trip id="truck163" type="truck_truck" depart="23.98" departLane="best" departSpeed="max" from="-837265370#1" to="-633827327"/>
    <trip id="truck164" type="truck_truck" depart="24.12" departLane="best" from="22742478#8" to="833357445"/>
    <trip id="truck165" type="truck_truck" depart="24.27" departLane="best" departSpeed="max" from="707873047#0" to="-23525402"/>
    <trip id="truck166" type="truck_truck" depart="24.42" departLane="best" from="263935656#2" to="1311607754"/>
    <trip id="truck167" type="truck_truck" depart="24.56" departLane="best" departSpeed="max" from="504084347" to="210551736#7"/>
    <trip id="truck168" type="truck_truck" depart="24.71" departLane="best" from="444137814#6" to="23525722#1"/>
    <trip id="truck169" type="truck_truck" depart="24.86" departLane="best" departSpeed="max" from="321137987" to="208837102#0"/>
    <trip id="truck170" type="truck_truck" depart="25.01" departLane="best" from="23285869#0" to="-453656788#0"/>
    <trip id="truck171" type="truck_truck" depart="25.15" departLane="best" from="-208966902#3" to="-453659325#0"/>
    <trip id="truck172" type="truck_truck" depart="25.30" departLane="best" from="208838653#3" to="-23525540#1"/>
    <trip id="truck173" type="truck_truck" depart="25.45" departLane="best" from="-337234312#2" to="321137971#4"/>
    <trip id="truck174" type="truck_truck" depart="25.59" departLane="best" departSpeed="max" from="25515185#0" to="208966902#3"/>
    <trip id="truck175" type="truck_truck" depart="25.74" departLane="best" from="-817879008#0" to="210372641"/>
    <trip id="truck176" type="truck_truck" depart="25.89" departLane="best" from="-833357413#0" to="-321137975#19"/>
    <trip id="truck177" type="truck_truck" depart="26.04" departLane="best" departSpeed="max" from="-833357419#1" to="817878992"/>
    <trip id="truck178" type="truck_truck" depart="26.18" departLane="best" from="22575412#7" to="-321137971#9"/>
    <trip id="truck179" type="truck_truck" depart="26.33" departLane="best" departSpeed="max" from="633827329" to="453656782#1"/>
    <trip id="truck180" type="truck_truck" depart="26.48" departLane="best" departSpeed="max" from="-742032244#5" to="444137814#10"/>
    <trip id="truck182" type="truck_truck" depart="26.77" departLane="best" departSpeed="max" from="208856046" to="23525033#1"/>
    <trip id="truck183" type="truck_truck" depart="26.92" departLane="best" from="-321138565#4" to="321137985#2"/>
    <trip id="truck184" type="truck_truck" depart="27.07" departLane="best" departSpeed="max" from="-833357438#3" to="208837099#1"/>
    <trip id="truck185" type="truck_truck" depart="27.21" departLane="best" departSpeed="max" from="-716757907#2" to="263935808#3"/>
    <trip id="truck186" type="truck_truck" depart="27.36" departLane="best" departSpeed="max" from="-817879005" to="-23525722#4"/>
    <trip id="truck187" type="truck_truck" depart="27.51" departLane="best" departSpeed="max" from="-892424150" to="-23525233#0"/>
    <trip id="truck188" type="truck_truck" depart="27.65" departLane="best" departSpeed="max" from="23285735#0" to="208837098#1"/>
    <trip id="truck189" type="truck_truck" depart="27.80" departLane="best" from="-698104774#2" to="22575354#7"/>
    <trip id="truck190" type="truck_truck" depart="27.95" departLane="best" departSpeed="max" from="-1120792376" to="23581308"/>
    <trip id="truck191" type="truck_truck" depart="28.09" departLane="best" from="208827155#6" to="-817870812"/>
    <trip id="truck192" type="truck_truck" depart="28.24" departLane="best" from="-321137985#2" to="-817870812"/>
    <trip id="truck193" type="truck_truck" depart="28.39" departLane="best" from="321137975#5" to="707873038#2"/>
    <trip id="truck194" type="truck_truck" depart="28.54" departLane="best" departSpeed="max" from="-453656781#2" to="-22742467#0"/>
    <trip id="truck195" type="truck_truck" depart="28.68" departLane="best" departSpeed="max" from="-1120792365" to="208966902#14"/>
    <trip id="truck196" type="truck_truck" depart="28.83" departLane="best" from="23525402" to="618889950"/>
    <trip id="truck197" type="truck_truck" depart="28.98" departLane="best" from="23525557#2" to="444137814#12"/>
    <trip id="truck198" type="truck_truck" depart="29.12" departLane="best" from="-23525348#0" to="263935513#7"/>
    <trip id="truck200" type="truck_truck" depart="29.42" departLane="best" departSpeed="max" from="241604571#0" to="453656785#0"/>
    <trip id="truck201" type="truck_truck" depart="29.57" departLane="best" from="-263935808#3" to="-23525233#1"/>
    <trip id="truck202" type="truck_truck" depart="29.71" departLane="best" from="321137975#16" to="-23285869#1"/>
    <trip id="truck203" type="truck_truck" depart="29.86" departLane="best" departSpeed="max" from="453656791#0" to="834052505"/>
    <trip id="truck204" type="truck_truck" depart="30.01" departLane="best" from="-23285725#1" to="-208837096"/>
    <trip id="truck205" type="truck_truck" depart="30.15" departLane="best" from="-698104774#2" to="-263935807#7"/>
    <trip id="truck206" type="truck_truck" depart="30.30" departLane="best" departSpeed="max" from="833357428" to="833356751"/>
    <trip id="truck207" type="truck_truck" depart="30.45" departLane="best" from="260145043#2" to="-22575412#1"/>
    <trip id="truck208" type="truck_truck" depart="30.60" departLane="best" from="23627920#4" to="23525665#4"/>
    <trip id="truck209" type="truck_truck" depart="30.74" departLane="best" from="-23074254#0" to="-453656834#0"/>
    <trip id="truck210" type="truck_truck" depart="30.89" departLane="best" from="618898653#5" to="23285864#1"/>
    <trip id="truck211" type="truck_truck" depart="31.04" departLane="best" from="23525210#1" to="892424155"/>
    <trip id="truck212" type="truck_truck" depart="31.18" departLane="best" from="321138567#2" to="-707873047#0"/>
    <trip id="truck213" type="truck_truck" depart="31.33" departLane="best" from="618898653#2" to="694770860#1"/>
    <trip id="truck214" type="truck_truck" depart="31.48" departLane="best" from="-23276701" to="834052502#1"/>
    <trip id="truck215" type="truck_truck" depart="31.62" departLane="best" departSpeed="max" from="23525200" to="707873036#3"/>
    <trip id="truck217" type="truck_truck" depart="31.92" departLane="best" from="-618898616" to="-321138565#0"/>
    <trip id="truck218" type="truck_truck" depart="32.07" departLane="best" departSpeed="max" from="504084347" to="-23069862#0"/>
    <trip id="truck219" type="truck_truck" depart="32.21" departLane="best" departSpeed="max" from="-892424148#2" to="23525333#1"/>
    <trip id="truck222" type="truck_truck" depart="32.65" departLane="best" departSpeed="max" from="-1113174355" to="833357438#3"/>
    <trip id="truck223" type="truck_truck" depart="32.80" departLane="best" departSpeed="max" from="-22575354#21" to="321138546#12"/>
    <trip id="truck224" type="truck_truck" depart="32.95" departLane="best" from="1005013666#1" to="618898653#2"/>
    <trip id="truck225" type="truck_truck" depart="33.10" departLane="best" from="-22742466#3" to="-321137986#6"/>
    <trip id="truck226" type="truck_truck" depart="33.24" departLane="best" from="-22575354#7" to="1113174356#2"/>
    <trip id="truck227" type="truck_truck" depart="33.39" departLane="best" from="241604571#3-AddedOnRampEdge" to="453656782#0"/>
    <trip id="truck228" type="truck_truck" depart="33.54" departLane="best" from="453656781#1" to="-23525177"/>
    <trip id="truck229" type="truck_truck" depart="33.68" departLane="best" from="-321137979" to="-23525177"/>
    <trip id="truck230" type="truck_truck" depart="33.83" departLane="best" departSpeed="max" from="-983655228" to="321138548#3"/>
    <trip id="truck231" type="truck_truck" depart="33.98" departLane="best" from="-618898658" to="-23285721#1"/>
    <trip id="truck233" type="truck_truck" depart="34.27" departLane="best" departSpeed="max" from="208837108#0" to="-453656788#0"/>
    <trip id="truck234" type="truck_truck" depart="34.42" departLane="best" departSpeed="max" from="833357442" to="210551738#3-AddedOffRampEdge"/>
    <trip id="truck235" type="truck_truck" depart="34.57" departLane="best" from="241602227#0" to="-23525233#0"/>
    <trip id="truck236" type="truck_truck" depart="34.71" departLane="best" from="647888633#0" to="1152339622"/>
    <trip id="truck237" type="truck_truck" depart="34.86" departLane="best" from="647888639#1" to="22742478#1-AddedOnRampEdge"/>
    <trip id="truck239" type="truck_truck" depart="35.16" departLane="best" from="321137975#11" to="-208855900#1"/>
    <trip id="truck240" type="truck_truck" depart="35.30" departLane="best" departSpeed="max" from="453656795" to="833357415#1"/>
    <trip id="truck241" type="truck_truck" depart="35.45" departLane="best" from="-208856390#1" to="23525676#0"/>
    <trip id="truck242" type="truck_truck" depart="35.60" departLane="best" from="-208837099#2" to="-23525676#2"/>
    <trip id="truck244" type="truck_truck" depart="35.89" departLane="best" departSpeed="max" from="941556496" to="-23525170"/>
    <trip id="truck245" type="truck_truck" depart="36.04" departLane="best" departSpeed="max" from="321137987" to="-23525210#3"/>
    <trip id="truck246" type="truck_truck" depart="36.18" departLane="best" from="337234311#4" to="-321138545#3"/>
    <trip id="truck248" type="truck_truck" depart="36.48" departLane="best" from="892424159#0" to="-618898653#0"/>
    <trip id="truck249" type="truck_truck" depart="36.63" departLane="best" departSpeed="max" from="23285735#0" to="23525326#1"/>
    <trip id="truck250" type="truck_truck" depart="36.77" departLane="best" from="-321138546#12" to="-321137975#9"/>
    <trip id="truck251" type="truck_truck" depart="36.92" departLane="best" from="-321137968#1" to="-22575412#0"/>
    <trip id="truck252" type="truck_truck" depart="37.07" departLane="best" from="-1085706110#1" to="-941556496"/>
    <trip id="truck253" type="truck_truck" depart="37.21" departLane="best" from="22742478#2" to="-618889951#0"/>
    <trip id="truck254" type="truck_truck" depart="37.36" departLane="best" from="-337234312#2" to="-321137982#1"/>
    <trip id="truck256" type="truck_truck" depart="37.66" departLane="best" from="23525664#0" to="833357420#2"/>