<?xml version="1.0" encoding="UTF-8"?>

<!-- generated on 2024-11-16 15:43:30.615777 by osmWebWizard.py v1_21_0+0000-d7b3b481c43
<configuration>
    <net-file value="C:\Users\salar\AIProject\src\2024-11-16-15-43-15\osm.net.xml.gz"/>
    <output-trip-file value="C:\Users\salar\AIProject\src\2024-11-16-15-43-15\osm.passenger.trips.xml"/>
    <route-file value="C:\Users\salar\AIProject\src\2024-11-16-15-43-15\osm.passenger.rou.xml"/>
    <prefix value="veh"/>
    <trip-attributes value="departLane=&quot;best&quot;"/>
    <fringe-start-attributes value="departSpeed=&quot;max&quot;"/>
    <vehicle-class value="passenger"/>
    <lanes value="True"/>
    <fringe-factor value="5"/>
    <allow-fringe.min-length value="1000.0"/>
    <via-edge-types value="highway.motorway,highway.motorway_link,highway.trunk_link,highway.primary_link,highway.secondary_link,highway.tertiary_link"/>
    <min-distance value="300.0"/>
    <min-distance.fringe value="10.0"/>
    <remove-loops value="True"/>
    <validate value="True"/>
    <insertion-density value="12.0"/>
</configuration>
-->

<!-- generated on 2024-11-16 15:43:30 by Eclipse SUMO duarouter Version 1.21.0
<duarouterConfiguration xmlns:xsi="http://www.w3.org/2001/XMLSchema-instance" xsi:noNamespaceSchemaLocation="http://sumo.dlr.de/xsd/duarouterConfiguration.xsd">

    <input>
        <net-file value="C:\Users\salar\AIProject\src\2024-11-16-15-43-15\osm.net.xml.gz"/>
        <route-files value="C:\Users\salar\AIProject\src\2024-11-16-15-43-15\osm.passenger.trips.xml"/>
    </input>

    <output>
        <output-file value="C:\Users\salar\AIProject\src\2024-11-16-15-43-15\osm.passenger.trips.xml.tmp"/>
        <alternatives-output value="NUL"/>
        <write-trips value="true"/>
    </output>

    <processing>
        <remove-loops value="true"/>
    </processing>

    <time>
        <begin value="0.0"/>
        <end value="3600.0"/>
    </time>

    <report>
        <no-warnings value="true"/>
        <ignore-errors value="true"/>
        <no-step-log value="true"/>
    </report>

</duarouterConfiguration>
-->

<routes xmlns:xsi="http://www.w3.org/2001/XMLSchema-instance" xsi:noNamespaceSchemaLocation="http://sumo.dlr.de/xsd/routes_file.xsd">
    <vType id="veh_passenger" vClass="passenger"/>
    <trip id="veh0" type="veh_passenger" depart="0.00" departLane="best" from="215752491" to="-116249634#5"/>
    <trip id="veh1" type="veh_passenger" depart="11.87" departLane="best" from="249639572#0" to="-22744742#0"/>
    <trip id="veh2" type="veh_passenger" depart="23.74" departLane="best" from="21621531#4" to="165014737#0"/>
    <trip id="veh3" type="veh_passenger" depart="35.62" departLane="best" departSpeed="max" from="-22584020#1" to="196005938"/>
    <trip id="veh4" type="veh_passenger" depart="47.49" departLane="best" from="27172796#0" to="116043937#4"/>
    <trip id="veh5" type="veh_passenger" depart="59.36" departLane="best" departSpeed="max" from="27172795#0" to="-22744737#4"/>
    <trip id="veh6" type="veh_passenger" depart="71.23" departLane="best" departSpeed="max" from="-297648957#10" to="-21621540#4"/>
    <trip id="veh7" type="veh_passenger" depart="83.10" departLane="best" from="432402294#1" to="29461221#5"/>
    <trip id="veh8" type="veh_passenger" depart="94.97" departLane="best" from="-170626222#4" to="-176628394#1"/>
    <trip id="veh9" type="veh_passenger" depart="106.85" departLane="best" from="-29461221#4" to="196006775#7"/>
    <trip id="veh10" type="veh_passenger" depart="118.72" departLane="best" departSpeed="max" from="27172795#0" to="-243572238#0"/>
    <trip id="veh11" type="veh_passenger" depart="130.59" departLane="best" departSpeed="max" from="117397447#0" to="-659692064#0"/>
    <trip id="veh12" type="veh_passenger" depart="142.46" departLane="best" departSpeed="max" from="-31148871#2" to="168618754#0"/>
    <trip id="veh13" type="veh_passenger" depart="154.33" departLane="best" from="22580060#5" to="243572238#2"/>
    <trip id="veh14" type="veh_passenger" depart="166.21" departLane="best" departSpeed="max" from="-165014737#1" to="-22744742#8"/>
    <trip id="veh15" type="veh_passenger" depart="178.08" departLane="best" departSpeed="max" from="-183567020#1" to="260916229#0"/>
    <trip id="veh16" type="veh_passenger" depart="189.95" departLane="best" from="-21108438#0" to="-31148870#2"/>
    <trip id="veh17" type="veh_passenger" depart="201.82" departLane="best" from="-31148870#3" to="-22744737#0"/>
    <trip id="veh18" type="veh_passenger" depart="213.69" departLane="best" from="-243673293#3" to="389582044"/>
    <trip id="veh19" type="veh_passenger" depart="225.56" departLane="best" from="21621531#3" to="213542111"/>
    <trip id="veh20" type="veh_passenger" depart="237.44" departLane="best" from="21621546#2" to="243572238#0"/>
    <trip id="veh21" type="veh_passenger" depart="249.31" departLane="best" from="-21621540#2" to="-31993520#1"/>
    <trip id="veh22" type="veh_passenger" depart="261.18" departLane="best" from="-838273014#0" to="-21621546#0"/>
    <trip id="veh23" type="veh_passenger" depart="273.05" departLane="best" from="119019661#2" to="22584018#1"/>
    <trip id="veh24" type="veh_passenger" depart="284.92" departLane="best" from="29461206#4" to="27172797#1"/>
    <trip id="veh25" type="veh_passenger" depart="296.79" departLane="best" from="-22744740#1" to="-117397447#0"/>
    <trip id="veh26" type="veh_passenger" depart="308.67" departLane="best" from="-22584015" to="38997325"/>
    <trip id="veh27" type="veh_passenger" depart="320.54" departLane="best" from="31148869#2" to="-27494390#3"/>
    <trip id="veh28" type="veh_passenger" depart="332.41" departLane="best" from="21621531#7" to="-334209277#4"/>
    <trip id="veh29" type="veh_passenger" depart="344.28" departLane="best" from="-243673293#2" to="-24303284#0"/>
    <trip id="veh30" type="veh_passenger" depart="356.15" departLane="best" departSpeed="max" from="119743424#0" to="-243673293#3"/>
    <trip id="veh31" type="veh_passenger" depart="368.03" departLane="best" from="-164057494#1" to="334209277#7"/>
    <trip id="veh32" type="veh_passenger" depart="379.90" departLane="best" from="170626222#2" to="243572238#2"/>
    <trip id="veh33" type="veh_passenger" depart="391.77" departLane="best" from="254502161" to="-389581875"/>
    <trip id="veh34" type="veh_passenger" depart="403.64" departLane="best" from="48018919#5" to="31148871#2"/>
    <trip id="veh35" type="veh_passenger" depart="415.51" departLane="best" departSpeed="max" from="-116069052" to="-23660050#0"/>
    <trip id="veh36" type="veh_passenger" depart="427.38" departLane="best" from="-243673293#3" to="-21621546#2"/>
    <trip id="veh38" type="veh_passenger" depart="451.13" departLane="best" from="334210195" to="-22087342#0"/>
    <trip id="veh39" type="veh_passenger" depart="463.00" departLane="best" from="334209277#5" to="31993520#0"/>
    <trip id="veh40" type="veh_passenger" depart="474.87" departLane="best" from="27172796#2" to="-21621546#0"/>
    <trip id="veh42" type="veh_passenger" depart="498.62" departLane="best" from="-116249634#0" to="38632572#0"/>
    <trip id="veh43" type="veh_passenger" depart="510.49" departLane="best" from="31148869#3" to="297648957#3"/>
    <trip id="veh44" type="veh_passenger" depart="522.36" departLane="best" from="-27494390#0" to="-119743424#0"/>
    <trip id="veh45" type="veh_passenger" depart="534.23" departLane="best" from="31148869#3" to="38997325"/>
    <trip id="veh46" type="veh_passenger" depart="546.10" departLane="best" from="-168618754#1" to="116075908#2"/>
    <trip id="veh47" type="veh_passenger" depart="557.97" departLane="best" from="-157203953" to="260916229#0"/>
    <trip id="veh48" type="veh_passenger" depart="569.85" departLane="best" from="48018919#3" to="165014737#1"/>
    <trip id="veh49" type="veh_passenger" depart="581.72" departLane="best" from="243673293#0" to="31993520#2"/>
    <trip id="veh50" type="veh_passenger" depart="593.59" departLane="best" from="-22580060#13" to="-27494390#2"/>
    <trip id="veh51" type="veh_passenger" depart="605.46" departLane="best" from="838273014#1" to="218871551#0"/>
    <trip id="veh52" type="veh_passenger" depart="617.33" departLane="best" from="-362453151" to="-119743424#1"/>
    <trip id="veh54" type="veh_passenger" depart="641.08" departLane="best" departSpeed="max" from="-297648957#10" to="-196006775#7"/>
    <trip id="veh55" type="veh_passenger" depart="652.95" departLane="best" from="-297648957#3" to="-1237570341#2"/>
    <trip id="veh56" type="veh_passenger" depart="664.82" departLane="best" from="22744742#3" to="22580060#10"/>
    <trip id="veh57" type="veh_passenger" depart="676.69" departLane="best" from="22584018#2" to="21108438#1"/>
    <trip id="veh58" type="veh_passenger" depart="688.56" departLane="best" from="48018919#1" to="27494390#2"/>
    <trip id="veh59" type="veh_passenger" depart="700.44" departLane="best" departSpeed="max" from="27172795#0" to="22580060#12"/>
    <trip id="veh60" type="veh_passenger" depart="712.31" departLane="best" from="-180733414" to="4057297#6"/>
    <trip id="veh61" type="veh_passenger" depart="724.18" departLane="best" from="-334209279#3" to="116043400#0"/>
    <trip id="veh62" type="veh_passenger" depart="736.05" departLane="best" from="-334209277#1" to="-29461259"/>
    <trip id="veh63" type="veh_passenger" depart="747.92" departLane="best" from="-297648957#4" to="-24303284#2"/>
    <trip id="veh64" type="veh_passenger" depart="759.80" departLane="best" from="22087342#1" to="-659692064#0"/>
    <trip id="veh65" type="veh_passenger" depart="771.67" departLane="best" from="-334209279#2" to="260916229#0"/>
    <trip id="veh66" type="veh_passenger" depart="783.54" departLane="best" from="23660050#1" to="334227214#0"/>
    <trip id="veh67" type="veh_passenger" depart="795.41" departLane="best" departSpeed="max" from="-389582044" to="31148871#2"/>
    <trip id="veh68" type="veh_passenger" depart="807.28" departLane="best" from="995509699" to="297648957#6"/>
    <trip id="veh69" type="veh_passenger" depart="819.15" departLane="best" from="48018919#4" to="334227214#1"/>
    <trip id="veh70" type="veh_passenger" depart="831.03" departLane="best" from="-671526829" to="-22744737#1"/>
    <trip id="veh71" type="veh_passenger" depart="842.90" departLane="best" departSpeed="max" from="-31148871#2" to="-674239312#4"/>
    <trip id="veh72" type="veh_passenger" depart="854.77" departLane="best" from="-21621531#5" to="-27172795#1"/>
    <trip id="veh74" type="veh_passenger" depart="878.51" departLane="best" from="117399410#1" to="249597204"/>
    <trip id="veh76" type="veh_passenger" depart="902.26" departLane="best" from="21621531#6" to="-48018919#0"/>
    <trip id="veh77" type="veh_passenger" depart="914.13" departLane="best" departSpeed="max" from="-165014737#1" to="-22087345"/>
    <trip id="veh78" type="veh_passenger" depart="926.00" departLane="best" departSpeed="max" from="176628394#0" to="22580060#4"/>
    <trip id="veh79" type="veh_passenger" depart="937.87" departLane="best" departSpeed="max" from="-22744740#2" to="-196006775#1"/>
    <trip id="veh80" type="veh_passenger" depart="949.74" departLane="best" from="31148872#1" to="-24303284#0"/>
    <trip id="veh81" type="veh_passenger" depart="961.62" departLane="best" from="170626222#4" to="21621531#3"/>
    <trip id="veh83" type="veh_passenger" depart="985.36" departLane="best" from="116075911#2" to="389582044"/>
    <trip id="veh84" type="veh_passenger" depart="997.23" departLane="best" from="22580060#3" to="23188731#0"/>
    <trip id="veh85" type="veh_passenger" depart="1009.10" departLane="best" from="22744742#3" to="334209277#5"/>
    <trip id="veh86" type="veh_passenger" depart="1020.97" departLane="best" from="21621546#3" to="-27172796#2"/>
    <trip id="veh87" type="veh_passenger" depart="1032.85" departLane="best" departSpeed="max" from="-164057494#2" to="-838273014#0"/>
    <trip id="veh88" type="veh_passenger" depart="1044.72" departLane="best" departSpeed="max" from="-164057494#2" to="-22744737#1"/>
    <trip id="veh89" type="veh_passenger" depart="1056.59" departLane="best" from="-243673293#2" to="-389581875"/>
    <trip id="veh90" type="veh_passenger" depart="1068.46" departLane="best" from="31148870#0" to="334209276#3"/>
    <trip id="veh92" type="veh_passenger" depart="1092.21" departLane="best" from="21621531#6" to="-116043937#5"/>
    <trip id="veh93" type="veh_passenger" depart="1104.08" departLane="best" from="27173382" to="-27172796#1"/>
    <trip id="veh94" type="veh_passenger" depart="1115.95" departLane="best" from="21621540#4" to="389582044"/>
    <trip id="veh96" type="veh_passenger" depart="1139.69" departLane="best" from="249597637#0" to="196006775#7"/>
    <trip id="veh97" type="veh_passenger" depart="1151.56" departLane="best" departSpeed="max" from="22744737#0" to="-22584018#1"/>
    <trip id="veh98" type="veh_passenger" depart="1163.44" departLane="best" from="674239312#2" to="334209279#2"/>
    <trip id="veh99" type="veh_passenger" depart="1175.31" departLane="best" from="-29461221#2" to="-176628394#0"/>
    <trip id="veh100" type="veh_passenger" depart="1187.18" departLane="best" from="-334209279#3" to="-249639572#2"/>
    <trip id="veh101" type="veh_passenger" depart="1199.05" departLane="best" from="-116043937#1" to="27172796#1"/>
    <trip id="veh102" type="veh_passenger" depart="1210.92" departLane="best" from="-21108438#1" to="-243673293#3"/>
    <trip id="veh103" type="veh_passenger" depart="1222.80" departLane="best" from="22744742#7" to="168618754#0"/>
    <trip id="veh104" type="veh_passenger" depart="1234.67" departLane="best" departSpeed="max" from="-164057494#2" to="334209276#3"/>
    <trip id="veh105" type="veh_passenger" depart="1246.54" departLane="best" from="334209277#1" to="165014737#0"/>
    <trip id="veh107" type="veh_passenger" depart="1270.28" departLane="best" from="-21621531#2" to="-196006775#6"/>
    <trip id="veh108" type="veh_passenger" depart="1282.15" departLane="best" from="-27494390#1" to="-334209278#0"/>
    <trip id="veh110" type="veh_passenger" depart="1305.90" departLane="best" from="249592608" to="-334209277#0"/>
    <trip id="veh111" type="veh_passenger" depart="1317.77" departLane="best" from="-334209277#3" to="21621531#4"/>
    <trip id="veh112" type="veh_passenger" depart="1329.64" departLane="best" from="-21621531#5" to="38632572#1"/>
    <trip id="veh113" type="veh_passenger" depart="1341.51" departLane="best" from="-297648957#6" to="671526829"/>
    <trip id="veh114" type="veh_passenger" depart="1353.39" departLane="best" from="27172796#2" to="334209276#3"/>
    <trip id="veh115" type="veh_passenger" depart="1365.26" departLane="best" from="116249634#5" to="243572238#2"/>
    <trip id="veh116" type="veh_passenger" depart="1377.13" departLane="best" from="-29461221#2" to="-38632573"/>
    <trip id="veh117" type="veh_passenger" depart="1389.00" departLane="best" departSpeed="max" from="27172795#0" to="31148871#2"/>
    <trip id="veh118" type="veh_passenger" depart="1400.87" departLane="best" from="27172796#1" to="-249597204"/>
    <trip id="veh120" type="veh_passenger" depart="1424.62" departLane="best" from="-30024330#2" to="31148871#0"/>
    <trip id="veh121" type="veh_passenger" depart="1436.49" departLane="best" departSpeed="max" from="-22584020#1" to="297648957#0"/>
    <trip id="veh122" type="veh_passenger" depart="1448.36" departLane="best" from="-4057297#6" to="-27173382"/>
    <trip id="veh123" type="veh_passenger" depart="1460.23" departLane="best" from="260916229#1" to="-22744742#11"/>
    <trip id="veh124" type="veh_passenger" depart="1472.10" departLane="best" from="29461206#4" to="31148871#2"/>
    <trip id="veh125" type="veh_passenger" depart="1483.97" departLane="best" from="48018919#3" to="260916229#1"/>
    <trip id="veh126" type="veh_passenger" depart="1495.85" departLane="best" from="-21621531#0" to="-334209277#7"/>
    <trip id="veh127" type="veh_passenger" depart="1507.72" departLane="best" from="674239312#2" to="162513733#3"/>
    <trip id="veh128" type="veh_passenger" depart="1519.59" departLane="best" from="48018919#5" to="-22087342#0"/>
    <trip id="veh129" type="veh_passenger" depart="1531.46" departLane="best" from="48018919#1" to="249590976"/>
    <trip id="veh131" type="veh_passenger" depart="1555.21" departLane="best" from="22744737#6" to="-27494390#3"/>
    <trip id="veh134" type="veh_passenger" depart="1590.82" departLane="best" from="24303285#0" to="-22744742#11"/>
    <trip id="veh135" type="veh_passenger" depart="1602.69" departLane="best" from="-117397448" to="-23660050#0"/>
    <trip id="veh136" type="veh_passenger" depart="1614.56" departLane="best" from="22744742#8" to="22580060#12"/>
    <trip id="veh137" type="veh_passenger" depart="1626.44" departLane="best" from="-30024330#2" to="-1224634496#1"/>
    <trip id="veh138" type="veh_passenger" depart="1638.31" departLane="best" from="27494390#3" to="31148869#2"/>
    <trip id="veh139" type="veh_passenger" depart="1650.18" departLane="best" departSpeed="max" from="22744737#0" to="-27172796#2"/>
    <trip id="veh140" type="veh_passenger" depart="1662.05" departLane="best" from="-27494390#1" to="-334209279#2"/>
    <trip id="veh141" type="veh_passenger" depart="1673.92" departLane="best" from="-334209277#1" to="-27172795#0"/>
    <trip id="veh142" type="veh_passenger" depart="1685.80" departLane="best" from="196006775#0" to="38632572#0"/>
    <trip id="veh143" type="veh_passenger" depart="1697.67" departLane="best" from="-38632572#0" to="22580060#7"/>
    <trip id="veh144" type="veh_passenger" depart="1709.54" departLane="best" from="334209277#1" to="21621531#2"/>
    <trip id="veh146" type="veh_passenger" depart="1733.28" departLane="best" from="21621531#6" to="116043400#0"/>
    <trip id="veh147" type="veh_passenger" depart="1745.15" departLane="best" departSpeed="max" from="-389582044" to="-22744737#1"/>
    <trip id="veh148" type="veh_passenger" depart="1757.03" departLane="best" from="-168618754#0" to="-119019661#2"/>
    <trip id="veh149" type="veh_passenger" depart="1768.90" departLane="best" from="-196006775#7" to="29461221#4"/>
    <trip id="veh150" type="veh_passenger" depart="1780.77" departLane="best" from="-22580060#11" to="-116249634#4"/>
    <trip id="veh151" type="veh_passenger" depart="1792.64" departLane="best" departSpeed="max" from="29461259" to="-1276546193"/>
    <trip id="veh152" type="veh_passenger" depart="1804.51" departLane="best" from="-22087342#5" to="-22744737#3"/>
    <trip id="veh153" type="veh_passenger" depart="1816.39" departLane="best" from="838273014#1" to="-24303284#0"/>
    <trip id="veh154" type="veh_passenger" depart="1828.26" departLane="best" from="21621531#7" to="-116043937#3"/>
    <trip id="veh155" type="veh_passenger" depart="1840.13" departLane="best" from="23660050#1" to="27172796#0"/>
    <trip id="veh157" type="veh_passenger" depart="1863.87" departLane="best" from="21621546#4" to="432402294#1"/>
    <trip id="veh158" type="veh_passenger" depart="1875.74" departLane="best" from="-4057297#1" to="29351427#1"/>
    <trip id="veh159" type="veh_passenger" depart="1887.62" departLane="best" from="21621546#0" to="-1224634496#0"/>
    <trip id="veh160" type="veh_passenger" depart="1899.49" departLane="best" departSpeed="max" from="176628394#0" to="4057297#0"/>
    <trip id="veh161" type="veh_passenger" depart="1911.36" departLane="best" from="31148872#3" to="21621531#0"/>
    <trip id="veh162" type="veh_passenger" depart="1923.23" departLane="best" departSpeed="max" from="22744737#0" to="117399410#4"/>
    <trip id="veh163" type="veh_passenger" depart="1935.10" departLane="best" from="334209276#0" to="243673293#3"/>
    <trip id="veh164" type="veh_passenger" depart="1946.98" departLane="best" from="48018919#2" to="31148870#0"/>
    <trip id="veh165" type="veh_passenger" depart="1958.85" departLane="best" from="-23188731#2" to="21621540#7"/>
    <trip id="veh166" type="veh_passenger" depart="1970.72" departLane="best" from="196006775#3" to="-249639572#2"/>
    <trip id="veh167" type="veh_passenger" depart="1982.59" departLane="best" departSpeed="max" from="-22744740#2" to="22584020#1"/>
    <trip id="veh168" type="veh_passenger" depart="1994.46" departLane="best" from="22580060#7" to="-121406044"/>
    <trip id="veh169" type="veh_passenger" depart="2006.33" departLane="best" from="-334209277#4" to="164057494#2"/>
    <trip id="veh170" type="veh_passenger" depart="2018.21" departLane="best" from="-164057494#1" to="-22744737#2"/>
    <trip id="veh171" type="veh_passenger" depart="2030.08" departLane="best" from="-297648957#1" to="-260916233#1"/>
    <trip id="veh172" type="veh_passenger" depart="2041.95" departLane="best" departSpeed="max" from="-31148871#2" to="-116043937#3"/>
    <trip id="veh173" type="veh_passenger" depart="2053.82" departLane="best" from="-297648957#3" to="249639572#0"/>
    <trip id="veh174" type="veh_passenger" depart="2065.69" departLane="best" departSpeed="max" from="29461259" to="4057297#3"/>
    <trip id="veh175" type="veh_passenger" depart="2077.56" departLane="best" from="-334209279#1" to="249597204"/>
    <trip id="veh176" type="veh_passenger" depart="2089.44" departLane="best" from="-117399410#5" to="196006775#7"/>
    <trip id="veh177" type="veh_passenger" depart="2101.31" departLane="best" departSpeed="max" from="-22584020#1" to="-22744737#6"/>
    <trip id="veh178" type="veh_passenger" depart="2113.18" departLane="best" departSpeed="max" from="-334211924#4" to="-117397447#0"/>
    <trip id="veh179" type="veh_passenger" depart="2125.05" departLane="best" from="-297648957#1" to="-22580060#9"/>
    <trip id="veh180" type="veh_passenger" depart="2136.92" departLane="best" departSpeed="max" from="-427965003" to="-196006775#6"/>
    <trip id="veh181" type="veh_passenger" depart="2148.80" departLane="best" from="196006775#1" to="-116249634#7"/>
    <trip id="veh182" type="veh_passenger" depart="2160.67" departLane="best" departSpeed="max" from="-334209276#3" to="183567020#1"/>
    <trip id="veh183" type="veh_passenger" depart="2172.54" departLane="best" from="-196006775#5" to="-995509698#1"/>
    <trip id="veh184" type="veh_passenger" depart="2184.41" departLane="best" from="119019661#1" to="-31993520#1"/>
    <trip id="veh185" type="veh_passenger" depart="2196.28" departLane="best" from="-22584015" to="29461206#0"/>
    <trip id="veh186" type="veh_passenger" depart="2208.15" departLane="best" from="24303285#1" to="-31993520#1"/>
    <trip id="veh187" type="veh_passenger" depart="2220.03" departLane="best" from="24303284#1" to="170626222#0"/>
    <trip id="veh188" type="veh_passenger" depart="2231.90" departLane="best" from="995509699" to="297648957#4"/>
    <trip id="veh189" type="veh_passenger" depart="2243.77" departLane="best" from="-21621540#7" to="21108438#0"/>
    <trip id="veh190" type="veh_passenger" depart="2255.64" departLane="best" from="23660050#0" to="196005938"/>
    <trip id="veh191" type="veh_passenger" depart="2267.51" departLane="best" from="-27494390#0" to="-48018919#2"/>
    <trip id="veh193" type="veh_passenger" depart="2291.26" departLane="best" from="-27494390#3" to="22580060#7"/>
    <trip id="veh194" type="veh_passenger" depart="2303.13" departLane="best" from="-22584018#2" to="164057494#0"/>
    <trip id="veh195" type="veh_passenger" depart="2315.00" departLane="best" departSpeed="max" from="29461259" to="196006775#5"/>
    <trip id="veh196" type="veh_passenger" depart="2326.87" departLane="best" from="334209279#5" to="-31148870#4"/>
    <trip id="veh197" type="veh_passenger" depart="2338.74" departLane="best" from="116043935#1" to="-29461259"/>
    <trip id="veh199" type="veh_passenger" depart="2362.49" departLane="best" from="-21108438#0" to="297648957#10"/>
    <trip id="veh200" type="veh_passenger" depart="2374.36" departLane="best" from="-249597204" to="29461206#3"/>
    <trip id="veh201" type="veh_passenger" depart="2386.23" departLane="best" from="-117397448" to="116075908#0"/>
    <trip id="veh202" type="veh_passenger" depart="2398.10" departLane="best" departSpeed="max" from="-334211924#4" to="243572238#1"/>
    <trip id="veh203" type="veh_passenger" depart="2409.98" departLane="best" from="27494390#5" to="-170626222#3"/>
    <trip id="veh204" type="veh_passenger" depart="2421.85" departLane="best" from="31148870#0" to="-24303284#0"/>
    <trip id="veh205" type="veh_passenger" depart="2433.72" departLane="best" departSpeed="max" from="-31148871#2" to="-117397447#0"/>
    <trip id="veh206" type="veh_passenger" depart="2445.59" departLane="best" from="-22584018#0" to="29350678#1"/>
    <trip id="veh207" type="veh_passenger" depart="2457.46" departLane="best" departSpeed="max" from="-297648957#10" to="334209276#3"/>
    <trip id="veh208" type="veh_passenger" depart="2469.33" departLane="best" from="22580060#2" to="-249639572#2"/>
    <trip id="veh209" type="veh_passenger" depart="2481.21" departLane="best" departSpeed="max" from="-116069052" to="4056884#0"/>
    <trip id="veh210" type="veh_passenger" depart="2493.08" departLane="best" from="-168618754#1" to="-23660050#0"/>
    <trip id="veh211" type="veh_passenger" depart="2504.95" departLane="best" from="674239312#2" to="254502161"/>
    <trip id="veh212" type="veh_passenger" depart="2516.82" departLane="best" from="22087342#3" to="-21621546#4"/>
    <trip id="veh213" type="veh_passenger" depart="2528.69" departLane="best" from="674239312#4" to="-27889294"/>
    <trip id="veh214" type="veh_passenger" depart="2540.56" departLane="best" from="-170626222#4" to="-22744742#0"/>
    <trip id="veh215" type="veh_passenger" depart="2552.44" departLane="best" from="22087342#4" to="-27348202#1"/>
    <trip id="veh216" type="veh_passenger" depart="2564.31" departLane="best" from="-23188731#2" to="-29461206#4"/>
    <trip id="veh217" type="veh_passenger" depart="2576.18" departLane="best" from="22580060#3" to="-249639572#0"/>
    <trip id="veh218" type="veh_passenger" depart="2588.05" departLane="best" from="22087342#4" to="-196006775#1"/>
    <trip id="veh219" type="veh_passenger" depart="2599.92" departLane="best" from="-218871551#2" to="-22744737#4"/>
    <trip id="veh220" type="veh_passenger" depart="2611.80" departLane="best" from="-659692064#2" to="-24303284#2"/>
    <trip id="veh221" type="veh_passenger" depart="2623.67" departLane="best" from="-260916229#1" to="183567020#0"/>
    <trip id="veh222" type="veh_passenger" depart="2635.54" departLane="best" from="-22087342#5" to="-22744742#11"/>
    <trip id="veh223" type="veh_passenger" depart="2647.41" departLane="best" from="-21621550#1" to="-116075911#0"/>
    <trip id="veh224" type="veh_passenger" depart="2659.28" departLane="best" departSpeed="max" from="117397447#0" to="-249639572#1"/>
    <trip id="veh225" type="veh_passenger" depart="2671.15" departLane="best" from="659692064#1" to="168618754#1"/>
    <trip id="veh226" type="veh_passenger" depart="2683.03" departLane="best" from="-297648957#8" to="116249634#2"/>
    <trip id="veh228" type="veh_passenger" depart="2706.77" departLane="best" from="-362453151" to="116043937#5"/>
    <trip id="veh229" type="veh_passenger" depart="2718.64" departLane="best" from="-27494390#1" to="-334209278#0"/>
    <trip id="veh230" type="veh_passenger" depart="2730.51" departLane="best" from="119743424#1" to="-27172797#1"/>
    <trip id="veh231" type="veh_passenger" depart="2742.39" departLane="best" from="-243572238#0" to="20944624"/>
    <trip id="veh232" type="veh_passenger" depart="2754.26" departLane="best" from="249639572#2" to="-22744742#0"/>
    <trip id="veh233" type="veh_passenger" depart="2766.13" departLane="best" departSpeed="max" from="116075911#0" to="671526829"/>
    <trip id="veh234" type="veh_passenger" depart="2778.00" departLane="best" departSpeed="max" from="-389582044" to="31148871#1"/>
    <trip id="veh235" type="veh_passenger" depart="2789.87" departLane="best" from="838273014#0" to="-27173382"/>
    <trip id="veh236" type="veh_passenger" depart="2801.74" departLane="best" from="-116043937#0" to="671526829"/>
    <trip id="veh237" type="veh_passenger" depart="2813.62" departLane="best" from="170626222#4" to="-27172795#0"/>
    <trip id="veh238" type="veh_passenger" depart="2825.49" departLane="best" from="22580060#3" to="-674239312#2"/>
    <trip id="veh239" type="veh_passenger" depart="2837.36" departLane="best" from="21621540#2" to="-389581875"/>
    <trip id="veh240" type="veh_passenger" depart="2849.23" departLane="best" from="334209279#4" to="164057494#2"/>
    <trip id="veh241" type="veh_passenger" depart="2861.10" departLane="best" from="21621531#3" to="334209279#3"/>
    <trip id="veh242" type="veh_passenger" depart="2872.98" departLane="best" from="27494390#3" to="-1237570341#2"/>
    <trip id="veh243" type="veh_passenger" depart="2884.85" departLane="best" from="-21621540#5" to="27494390#0"/>
    <trip id="veh244" type="veh_passenger" depart="2896.72" departLane="best" from="23660050#0" to="183567020#1"/>
    <trip id="veh245" type="veh_passenger" depart="2908.59" departLane="best" from="22087342#1" to="-22744737#6"/>
    <trip id="veh246" type="veh_passenger" depart="2920.46" departLane="best" from="38632573" to="-117398898"/>
    <trip id="veh247" type="veh_passenger" depart="2932.33" departLane="best" from="-838273014#3" to="168618754#1"/>
    <trip id="veh248" type="veh_passenger" depart="2944.21" departLane="best" from="-170626222#3" to="-48018919#1"/>
    <trip id="veh250" type="veh_passenger" depart="2967.95" departLane="best" from="-4057297#1" to="995509699"/>
    <trip id="veh251" type="veh_passenger" depart="2979.82" departLane="best" from="21621546#3" to="-249597637#1"/>
    <trip id="veh252" type="veh_passenger" depart="2991.69" departLane="best" from="-119015824#0" to="-249639572#2"/>
    <trip id="veh253" type="veh_passenger" depart="3003.57" departLane="best" from="48018919#0" to="218871551#0"/>