<?xml version="1.0" encoding="UTF-8"?>

<!-- generated on 2024-11-16 15:43:31.377945 by osmWebWizard.py v1_21_0+0000-d7b3b481c43
<configuration>
    <net-file value="C:\Users\salar\AIProject\src\2024-11-16-15-43-15\osm.net.xml.gz"/>
    <output-trip-file value="C:\Users\salar\AIProject\src\2024-11-16-15-43-15\osm.pedestrian.trips.xml"/>
    <route-file value="C:\Users\salar\AIProject\src\2024-11-16-15-43-15\osm.pedestrian.rou.xml"/>
    <pedestrians value="True"/>
    <prefix value="ped"/>
    <vehicle-class value="pedestrian"/>
    <fringe-factor value="1"/>
    <max-distance value="2000.0"/>
    <insertion-density value="10.0"/>
</configuration>
-->

<!-- generated on 2024-11-16 15:43:31 by Eclipse SUMO duarouter Version 1.21.0
<duarouterConfiguration xmlns:xsi="http://www.w3.org/2001/XMLSchema-instance" xsi:noNamespaceSchemaLocation="http://sumo.dlr.de/xsd/duarouterConfiguration.xsd">

    <input>
        <net-file value="C:\Users\salar\AIProject\src\2024-11-16-15-43-15\osm.net.xml.gz"/>
        <route-files value="C:\Users\salar\AIProject\src\2024-11-16-15-43-15\osm.pedestrian.trips.xml"/>
    </input>

    <output>
        <output-file value="C:\Users\salar\AIProject\src\2024-11-16-15-43-15\osm.pedestrian.rou.xml"/>
        <alternatives-output value="NUL"/>
    </output>

    <time>
        <begin value="0.0"/>
        <end value="3600.0"/>
    </time>

    <report>
        <no-warnings value="true"/>
        <ignore-errors value="true"/>
        <no-step-log value="true"/>
    </report>

</duarouterConfiguration>
-->

<routes xmlns:xsi="http://www.w3.org/2001/XMLSchema-instance" xsi:noNamespaceSchemaLocation="http://sumo.dlr.de/xsd/routes_file.xsd">
    <vType id="ped_pedestrian" vClass="pedestrian"/>
    <person id="ped0" type="ped_pedestrian" depart="0.00">
        <walk edges="243572238#2 243572238#1 243572238#0 243673293#3 -243673293#2 31148870#0 31148870#3 31148870#4 116043400#0 116043400#1 249592608 119461950 -121397367#0 -119461948#1 119461951 183558506 -121260114#1"/>
    </person>
    <person id="ped1" type="ped_pedestrian" depart="12.33">
        <walk edges="-672298494 -27494390#4 -27494390#3 -164057494#0 -164057494#1 -164057494#2 164057495#0 164057495#1 164057495#2 292713907#1 116069050#1 117493952#0 117493952#1 -297346907 243673293#3 243673293#0 23188731#0 196006775#7 196006775#6 196006775#5 196006775#3 196006775#2 196006775#1 196006775#0 170626222#4 170626222#2 170626222#0 342103786#1 1276546193 23660050#1 23660050#0 -448416750#2"/>
    </person>
    <person id="ped2" type="ped_pedestrian" depart="24.65">
        <walk edges="334209279#3 334209279#4 334209279#5 334209277#0 334209277#1 334209277#2 334209277#3 334209277#4 334209277#5 334209277#7 838273014#0 838273014#1 170626222#0 170626222#2 170626222#4 196006775#0 196006775#1 196006775#2 196006775#3 196006775#5 196006775#6 196006775#7 23188731#0 243673293#0 243673293#3 -297346907 117493952#1 117493952#0 116069050#1 292713907#1 164057495#2 164057495#1 164057495#0 -164057494#2 -164057494#1 -164057494#0 27494390#3 27494390#4"/>
    </person>
    <person id="ped4" type="ped_pedestrian" depart="49.30">
        <walk edges="1036090314 -183570931#1 -249589736 176628395#2 -176628395#1 -176628395#0 161274865#0 161274866 121406052#2 249639572#0 249639572#1 116069056#0 116069056#1 116069039 162513733#1 162513733#3 213542111 -116069030 -116043935#0 -116043935#1 31148870#0 31148870#3 31148870#4 116043400#0 116043400#1 249592608 119461950 -121397367#0"/>
    </person>
    <person id="ped5" type="ped_pedestrian" depart="61.63">
        <walk edges="-432402294#0 -249592608 -116043400#1 -116043400#0 -31148870#4 -31148870#3 -31148870#2 -116043935#1 -116043935#0 -116069030 162513741"/>
    </person>
    <person id="ped6" type="ped_pedestrian" depart="73.96">
        <walk edges="-121397362#0 38997324 125736245#0 285819994#1 285819996#1 285819995 -183561423#2 183561423#3 -183561423#4 31148869#1 686457059#0 686457059#1 686457059#2 686457062#1 -838273014#3 -838273014#0 -334209277#7 -334209277#5 -334209277#4"/>
    </person>
    <person id="ped7" type="ped_pedestrian" depart="86.28">
        <walk edges="249639572#0 249639572#1 116069056#0 116069056#1 116069039 162513733#1 162513733#3 213542111 -116069030 -116043935#0 -116043935#1 23188731#0 196006775#7 196006775#6 196006775#5 196006775#3 171283144"/>
    </person>
    <person id="ped8" type="ped_pedestrian" depart="98.61">
        <walk edges="-432402294#1 -432402294#0 -249592608 -116043400#1 -116043400#0 -31148870#4 -31148870#3 -31148870#2 243673293#0 243673293#3 -297346907 117493952#1 117493952#0 116069050#1 292713907#1 164057495#2 164057495#1 164057495#0 -164057494#2 -164057494#1 -164057494#0 -334227214#0 -334227214#1 249597204 -21621531#3 -21621531#2 390410261 237402241#0 192960736#7 192960736#6 -192960736#5 -192960736#4 192960736#3"/>
    </person>
    <person id="ped11" type="ped_pedestrian" depart="135.59">
        <walk edges="-672886370 -334209277#1 -334209277#2 -334209277#3 334209277#4 334209277#5 334209277#7 838273014#0 838273014#1 170626222#0 170626222#2 170626222#4 196006775#0 196006775#1 196006775#2 196006775#3 196006775#5 196006775#6 -447930448 -260916229#0 -260916233#0"/>
    </person>
    <person id="ped13" type="ped_pedestrian" depart="160.24">
        <walk edges="-192960736#11 -192960736#10 -192960736#9 192960736#8 192960736#7 192960736#6 -192960736#5 -192960736#4"/>
    </person>
    <person id="ped16" type="ped_pedestrian" depart="197.22">
        <walk edges="169231161#0 -196006775#5 -196006775#6 -196006775#7 23188731#0 243673293#0 243673293#3 -297346907 117493952#1 117493952#0 116069050#1 292713907#1 164057495#2 164057495#1 164057495#0 -164057494#2 -164057494#1 -164057494#0 -334227214#0 -334227214#1 249597204 -21621531#3 -21621531#2 390410261 237402241#0 192960736#8 -192960736#9 686457101"/>
    </person>
    <person id="ped17" type="ped_pedestrian" depart="209.54">
        <walk edges="-686457075 -297648957#7 -297648957#6 -297648957#4 -297648957#3 -297648957#2 -297648957#1 21621531#0 21621531#1 21621531#2 21621531#3 249597204 -334227214#1 -334227214#0 -164057494#0 -164057494#1 -164057494#2 164057495#0 164057495#1 164057495#2 292713907#1 116069050#1 117493952#0 117493952#1 -297346907 243673293#3 -243673293#2 31148870#0 31148870#3 31148870#4 116043400#0 116043400#1 249592608 119461950 -121397367#0 -119461948#1 119461951 23657676 607752895 -27221387 -168540416#0 -168540416#1 -168540416#2 -183552395 183552395"/>
    </person>
    <person id="ped20" type="ped_pedestrian" depart="246.52">
        <walk edges="297648957#7 297648957#6 297648957#4 297648957#3 297648957#2 297648957#0 -21621531#0 -21621531#1 -21621531#2 -21621531#3 -21621531#4 -21621531#5 -21621531#6 -21621531#7 121406052#0 121406052#1 161274866 161274865#0 -176628395#0 -176628395#1 -165014739 -128328606#1"/>
    </person>
    <person id="ped22" type="ped_pedestrian" depart="271.17">
        <walk edges="-183561422#1 -183561423#2 285819995 285819996#1 285819994#1 125736245#0 -432402294#0 -249592608 -116043400#1 -116043400#0 -31148870#4 -31148870#3 -31148870#2 -116043935#1 -116043935#0 -116069030 213542111 162513733#3 162513733#1 116069039 116069056#1 116069056#0 249639572#1 249639572#0 121406052#2 161274866 161274865#0 -46875342#2"/>
    </person>
    <person id="ped25" type="ped_pedestrian" depart="308.15">
        <walk edges="-686457068 218871551#1 218871551#2 218871551#3 21621531#0 21621531#1 21621531#2 21621531#3 249597204 -334227214#1 -334227214#0 -164057494#0 -164057494#1 -164057494#2 164057495#0 164057495#1 164057495#2 292713907#1 116069050#1 117493952#0 117493952#1 -297346907 243673293#3 -243673293#2 31148870#0 31148870#3 31148870#4 116043400#0 116043400#1 249592608 119461950 -121397367#0 -119461948#1 119461951 -371625508"/>
    </person>
    <person id="ped27" type="ped_pedestrian" depart="332.80">
        <walk edges="249592608 -116043400#1 -116043400#0 -31148870#4 -31148870#3 -31148870#2 -116043935#1 -116043935#0 -116069030 213542111"/>
    </person>
    <person id="ped28" type="ped_pedestrian" depart="345.13">
        <walk edges="-27494390#5 -27494390#4 -27494390#3 -164057494#0 -164057494#1 -164057494#2 164057495#0 164057495#1 164057495#2 292713907#1 116069050#1 117493952#0 117493952#1 -297346907 243673293#3 243673293#0 23188731#0 196006775#7 196006775#6 196006775#5 196006775#3 196006775#2 196006775#1 196006775#0 170626222#4 170626222#2 170626222#0 838273014#1 838273014#0 334209277#7 334209277#5 334209277#4 334209277#3 334209277#2"/>
    </person>
    <person id="ped29" type="ped_pedestrian" depart="357.46">
        <walk edges="-27172797#1 183581228 165014734 165014732 -249639572#0 121406052#2 121406052#1 121406052#0 21621531#7 21621531#6 21621531#5 21621531#4 21621531#3 21621531#2 21621531#1 21621531#0 -297648957#1 -297648957#2 -297648957#3 -297648957#4 -297648957#6 -297648957#7 -686457075"/>
    </person>
    <person id="ped35" type="ped_pedestrian" depart="431.41">
        <walk edges="-371850394 23657676 119461951 -119461948#1 -121397367#0 119461950 249592608 -116043400#1 -116043400#0 -31148870#4 -31148870#3 -31148870#2 -23188731#2 686457064"/>
    </person>
    <person id="ped37" type="ped_pedestrian" depart="456.07">
        <walk edges="254502161 119019658 249639572#2 249639572#1 249639572#0 121406052#2 121406052#1 121406052#0 -21621531#7 -21621531#6 -21621531#5 -21621531#4 -21621531#3 -21621531#2 390410261 237402241#0 192960736#8 -192960736#9 -686457101"/>
    </person>
    <person id="ped41" type="ped_pedestrian" depart="505.37">
        <walk edges="192960736#10 -192960736#9 192960736#8 237402241#0 390410261 -21621531#2 -21621531#3 249597204 -334227214#1 -334227214#0 -164057494#0 -164057494#1 -164057494#2 164057495#0 164057495#1 164057495#2 292713907#1 116069050#1 117493952#0 117493952#1 -297346907 243673293#3 243673293#0 23188731#0 196006775#7 196006775#6 196006775#5 196006775#3 196006775#2 196006775#1 196006775#0 170626222#4 170626222#2 170626222#0 838273014#1 838273014#0 334209277#7 334209277#5 334209277#4 -334209277#3 672886374"/>
    </person>
    <person id="ped42" type="ped_pedestrian" depart="517.70">
        <walk edges="-686457107 -21621531#4 -249597204 334227214#1 334227214#0 -164057494#0 -164057494#1 -164057494#2 164057495#0 164057495#1 164057495#2 292713907#1 116069050#1 117493952#0 117493952#1 -297346907 243673293#3 243673293#0 -31148870#2 -31148870#3 -31148870#4 -116043400#0 -116043400#1 -249592608 -432402294#0"/>
    </person>
    <person id="ped43" type="ped_pedestrian" depart="530.02">
        <walk edges="931723136#1 931723136#0 21621531#1 21621531#2 21621531#3 249597204 -334227214#1 -334227214#0 -164057494#0 -164057494#1 164057494#2"/>
    </person>
    <person id="ped44" type="ped_pedestrian" depart="542.35">
        <walk edges="-192960736#10 -192960736#9 192960736#8 237402241#0 390410261 -21621531#2 -21621531#3 -21621531#4 -21621531#5 -21621531#6 -21621531#7 121406052#0 121406052#1 161274866 -161274865#0"/>
    </person>
    <person id="ped45" type="ped_pedestrian" depart="554.67">
        <walk edges="-196006775#6 -196006775#7 23188731#0 243673293#0 243673293#3 -297346907 117493952#1 117493952#0 116069050#1 292713907#1 164057495#2 164057495#1 164057495#0 -164057494#2 -164057494#1 -164057494#0 -334227214#0 -334227214#1 249597204 21621531#3 21621531#2 21621531#1 21621531#0 218871551#3 218871551#2 218871551#1"/>
    </person>
    <person id="ped46" type="ped_pedestrian" depart="567.00">
        <walk edges="48018919#5 334209279#0 334209279#2 334209279#3 334209279#4 334209279#5 334209277#0 334209277#1 334209277#2 334209277#3 334209277#4 334209277#5 334209277#7 838273014#0 838273014#1 170626222#0 170626222#2 170626222#4 196006775#0 196006775#1 196006775#2 196006775#3 196006775#5 196006775#6 196006775#7 23188731#0 -116043935#1 -116043935#0 -116069030 213542111 162513733#3 162513733#1 116069039 116069056#1 116069056#0 249639572#1 249639572#0 121406052#2 161274866 161274865#0 -176628395#0 -176628395#1 176628395#2 -249589736 -183570931#1 1036090314"/>
    </person>
    <person id="ped48" type="ped_pedestrian" depart="591.65">
        <walk edges="931723136#0 21621531#1 21621531#2 21621531#3 249597204 -334227214#1 -334227214#0 -164057494#0 -164057494#1 -164057494#2 164057495#0 164057495#1 164057495#2 292713907#1 116069050#1 117493952#0 117493952#1 -297346907 243673293#3 -243673293#2 31148870#0 31148870#3 31148870#4 116043400#0 116043400#1 249592608 119461950 -121397367#0 -119461948#1 119461951 23657676 607752895 -27221387 -168540416#0 168540639"/>
    </person>
    <person id="ped49" type="ped_pedestrian" depart="603.98">
        <walk edges="686457099 -192960736#11 -192960736#10 -192960736#9 192960736#8 237402241#0 390410261 -21621531#2 -21621531#3 249597204 -334227214#1 -334227214#0 -164057494#0 -164057494#1 -164057494#2 164057495#0 164057495#1 164057495#2 292713907#1 116069050#1 117493952#0 117493952#1 -297346907 243673293#3 243673293#0 23188731#0 196006775#7 196006775#6 196006775#5 196006775#3 196006775#2 196006775#1 196006775#0 170626222#4 170626222#2 672877471"/>
    </person>
    <person id="ped51" type="ped_pedestrian" depart="628.63">
        <walk edges="285819995 -183561423#2 183561423#3 -183561423#4 31148869#2 31148869#3 169231161#1"/>
    </person>
    <person id="ped53" type="ped_pedestrian" depart="653.28">
        <walk edges="-204133126 23660050#1 1276546193 342103786#1 170626222#0 170626222#2 170626222#4 196006775#0 196006775#1 196006775#2 196006775#3 196006775#5 196006775#6 196006775#7 23188731#0 243673293#0 243673293#3 -297346907 117493952#1 117493952#0 116069050#1 292713907#1 116069041#1"/>
    </person>
    <person id="ped54" type="ped_pedestrian" depart="665.61">
        <walk edges="117768739 -117768738#1 168619056 1224634496#1 -21621531#7 -21621531#6 -21621531#5 -21621531#4 -21621531#3 -21621531#2 -21621531#1 -21621531#0 297648957#0 297648957#2 -297648957#3 -686457072#0 686457073"/>
    </person>
    <person id="ped56" type="ped_pedestrian" depart="690.26">
        <walk edges="161405520#1 161405520#0 -165014735#0 29350876#1 29350876#0 674239312#2 674239312#3 674239312#4 674239312#5 1224634496#1 -21621531#7 -21621531#6 -21621531#5 -21621531#4 -21621531#3 -21621531#2 -21621531#1 -21621531#0 297648957#0 297648957#2 297648957#3 297648957#4 297648957#6 297648957#7 297648957#8 297648957#10 -297648957#10"/>
    </person>
    <person id="ped58" type="ped_pedestrian" depart="714.91">
        <walk edges="-672877462 -260916233#0 -260916229#0 -260916229#1 196005938 23188731#0 243673293#0 243673293#3 243572238#0 243572238#1 243572238#2"/>
    </person>
    <person id="ped59" type="ped_pedestrian" depart="727.24">
        <walk edges="213542111 -116069030 -116043935#0 -116043935#1 23188731#0 196005938 -260916229#1"/>
    </person>
    <person id="ped63" type="ped_pedestrian" depart="776.54">
        <walk edges="-119019661#2 -119019661#1 -119019661#0 -243572238#1 -243572238#0 -243673293#3 -243673293#2 31148870#0 31148870#3 31148870#4 116043400#0 686457056"/>
    </person>
    <person id="ped65" type="ped_pedestrian" depart="801.20">
        <walk edges="-672877471 170626222#0 686457062#1 686457059#2 686457059#1 686457059#0 31148869#1 -183561423#4 183561423#3 -183561423#2 285819995 285819996#1 285819994#1 125736245#0 38997324 119461950 -121397367#0 -119461948#1 119461951 23657676 607752895 -27221387 -168540416#0 -168540416#1 -168540416#2"/>
    </person>
    <person id="ped67" type="ped_pedestrian" depart="825.85">
        <walk edges="-183570931#0 -183570931#1 -249589736 176628395#2 -176628395#1 -176628395#0 161274865#0 161274866 121406052#2 249639572#0 249639572#1 116069056#0 116069056#1 116069039 162513733#1 162513733#3 213542111 -116069030 -116043935#0 -116043935#1 -31148870#2 -31148870#3 -31148870#4 -116043400#0 -116043400#1 -249592608 -432402294#0 125736245#0 125736245#1"/>
    </person>
    <person id="ped68" type="ped_pedestrian" depart="838.17">
        <walk edges="-176628395#3 176628395#2 -176628395#1 436996400#0 436996400#1"/>
    </person>
    <person id="ped69" type="ped_pedestrian" depart="850.50">
        <walk edges="447930446 161405520#0 -165014735#0 29350876#1 29350876#0 674239312#2 674239312#3 674239312#4 674239312#5 1224634496#1 -21621531#7 -21621531#6 -21621531#5 -21621531#4 -21621531#3 -21621531#2 -21621531#1 -21621531#0 -218871551#3 -218871551#2 -218871551#1 -218871551#0"/>
    </person>
    <person id="ped70" type="ped_pedestrian" depart="862.83">
        <walk edges="121406052#1 161274866 161274865#0 -176628395#0 -176628395#1 176628395#2 176628395#3"/>
    </person>
    <person id="ped73" type="ped_pedestrian" depart="899.80">
        <walk edges="170351329#0 170351329#1 451632395#0 451632394 -297346907 243673293#3 243673293#0 23188731#0 196006775#7 196006775#6 196006775#5 196006775#3 196006775#2 196006775#1 196006775#0 170626222#4 170626222#2 170626222#0 838273014#1 838273014#0 334209277#7 334209277#5 334209277#4 334209277#3"/>
    </person>
    <person id="ped75" type="ped_pedestrian" depart="924.46">
        <walk edges="838273014#1 170626222#0 170626222#2 170626222#4 196006775#0 196006775#1 196006775#2 196006775#3 196006775#5 196006775#6 196006775#7 23188731#0 -116043935#1 -116043935#0 -116069030 213542111 162513733#3 162513733#1 116069039 116069056#1 116069056#0 249639572#1 249639572#0"/>
    </person>
    <person id="ped76" type="ped_pedestrian" depart="936.78">
        <walk edges="116069050#2 292713907#1 164057495#2 451632391 -116069052 -27494390#1 27494390#0 121406052#2 161274866 161274865#0 -176628395#0 -176628395#1 176628395#2 -249589736 -165014735#1 165014735#0"/>
    </person>
    <person id="ped80" type="ped_pedestrian" depart="986.09">
        <walk edges="-183552395 -168540416#2 -168540416#1 -168540416#0 -27221387 607752895 23657676 119461951 -119461948#1 -121397367#0 119461950 249592608 -116043400#1 -116043400#0 -31148870#4 -31148870#3 -31148870#2 23188731#0"/>
    </person>
    <person id="ped82" type="ped_pedestrian" depart="1010.74">
        <walk edges="672877470 334209277#7 838273014#0 838273014#1 686457062#1 686457059#2 686457059#1 686457059#0 31148869#1 -183561423#4 183561423#3 -183561423#2 285819995 285819996#1 285819994#1 125736245#0 38997324 119461950 -121397367#0 -119461948#1 119461951 23657676 607752895 -27221387 -168540416#0 -168540416#1 -168540416#2 -183552395"/>
    </person>
    <person id="ped83" type="ped_pedestrian" depart="1023.06">
        <walk edges="-48018919#4 -48018919#5 334209279#0 334209279#2 334209279#3 334209279#4 334209279#5 334209277#0 334209277#1 334209277#2 334209277#3 334209277#4 334209277#5 334209277#7 838273014#0 838273014#1 170626222#0 170626222#2 170626222#4 196006775#0 196006775#1 196006775#2 196006775#3 196006775#5 196006775#6 196006775#7 23188731#0 -116043935#1 -116043935#0 -116069030 213542111 162513733#3 162513733#1 116069039 116069056#1 116069056#0 249639572#1 165014732 165014734 183581228 27172797#1"/>
    </person>
    <person id="ped84" type="ped_pedestrian" depart="1035.39">
        <walk edges="-38997320#1 64801336 -27221387 607752895 23657676 119461951 -119461948#1 -121397367#0 119461950 249592608 -116043400#1 -116043400#0 -31148870#4 -31148870#3 -31148870#2 -23188731#2"/>
    </person>
    <person id="ped85" type="ped_pedestrian" depart="1047.72">
        <walk edges="686457059#3 686457062#1 -170626222#1 -170626222#3 -170626222#4 -196006775#0 -196006775#1 -196006775#2 -196006775#3 -196006775#5 -196006775#6 -196006775#7 23188731#0 -116043935#1 -116043935#0 -116069030 213542111 162513733#3 162513733#1 116069039 116069056#1 116069056#0 249639572#1 249639572#0 121406052#2 161274866 161274865#0 -46875342#2 -46875342#1 183570928 183570938 183570934#0 183570934#1 183570932"/>
    </person>
    <person id="ped86" type="ped_pedestrian" depart="1060.04">
        <walk edges="121397367#1 119461950 249592608 -116043400#1 -116043400#0 -31148870#4 -31148870#3 -31148870#2 -116043935#1 -116043935#0 -116069030 213542111 162513733#3 162513733#1 116069039 116069056#1 116069056#0 249639572#1 249639572#0 121406052#2 161274866 161274865#0 46875342#2"/>
    </person>
    <person id="ped88" type="ped_pedestrian" depart="1084.70">
        <walk edges="-192960736#4 -192960736#5 192960736#6 192960736#7 237402241#0 390410261 -21621531#2 -21621531#3 249597204 -334227214#1 -334227214#0 -164057494#0 -164057494#1 -164057494#2 164057495#0 164057495#1 164057495#2 292713907#1 116069050#1 117493952#0 117493952#1 -297346907 243673293#3 243673293#0 116043935#1"/>
    </person>
    <person id="ped89" type="ped_pedestrian" depart="1097.02">
        <walk edges="1036090316 447930444 183570934#0 183570938 183570928 -46875342#1 -46875342#2 161274865#0 161274866 121406052#2 249639572#0 249639572#1 116069056#0 116069056#1 116069039 162513733#1 162513733#3 213542111 -116069030 -116043935#0 -116043935#1 31148870#0 31148870#3 31148870#4 116043400#0 116043400#1 249592608 119461950 -121397367#0 -119461948#1 121260116"/>
    </person>
    <person id="ped90" type="ped_pedestrian" depart="1109.35">
        <walk edges="334209277#2 334209277#3 334209277#4 334209277#5 334209277#7 838273014#0 838273014#1 170626222#0 170626222#2 170626222#4 196006775#0 196006775#1 196006775#2 196006775#3 196006775#5 196006775#6 196006775#7 23188731#0 243673293#0 243673293#3 -297346907 117493952#1 117493952#0 116069050#1 292713907#1 164057495#2 451632391 -116069052 -27494390#1 27494390#1"/>
    </person>
    <person id="ped92" type="ped_pedestrian" depart="1134.00">
        <walk edges="-686457110 674239312#4 674239312#5 1224634496#1 121406052#0 121406052#1 121406052#2 249639572#0 249639572#1 116069056#0 116069056#1 116069039 162513733#1 162513733#3 213542111 -116069030 -116043935#0 -116043935#1 23188731#0 196006775#7 196006775#6 196006775#5 196006775#3 196006775#2 196006775#1 196006775#0 170626222#4 170626222#2 170626222#0 838273014#1 838273014#0 334209277#7 334209277#5 334209277#4 334209277#3 334209277#2 334209277#1 334209277#0 334209279#5 334209279#4 -334209279#3 -672886367"/>
    </person>
    <person id="ped95" type="ped_pedestrian" depart="1170.98">
        <walk edges="1036090314 -183570931#1 -249589736 176628395#2 -176628395#1 -176628395#0 161274865#0 161274866 121406052#2 249639572#0 249639572#1 116069056#0 116069056#1 116069039 162513733#1 162513733#3 213542111 -116069030 -116043935#0 -116043935#1 23188731#0 196005938 -260916229#1 -260916229#0 -260916233#0 -260916233#1 -260916231 -116075908#2 -116075908#1 -116075908#0 -260916929#0 21621550#1 -672877443"/>
    </person>
    <person id="ped97" type="ped_pedestrian" depart="1195.63">
        <walk edges="116069056#1 116069039 162513733#1 162513733#3 213542111 -116069030 -116043935#0 -116043935#1 23188731#0 196006775#7 196006775#6 196006775#5 196006775#3 196006775#2 196006775#1 196006775#0 170626222#4 170626222#2 672877471"/>
    </person>
    <person id="ped98" type="ped_pedestrian" depart="1207.96">
        <walk edges="183536059 -168540416#2 -168540416#1 -168540416#0 -27221387 607752895 23657676 119461951 -119461948#1 -121397367#0 119461950 249592608 116043400#1 116043400#0 31148870#4 31148870#3 31148870#0 -243673293#2 243673293#3 -297346907 117493952#1 117493952#0 116069050#1 292713907#1 164057495#2 164057495#1 164057495#0 -164057494#2 -164057494#1"/>
    </person>
    <person id="ped101" type="ped_pedestrian" depart="1244.93">
        <walk edges="672877460 162513733#1 116069039 116069056#1 116069056#0 249639572#1 249639572#0 -27494390#0"/>
    </person>
    <person id="ped102" type="ped_pedestrian" depart="1257.26">
        <walk edges="125736245#1 125736245#0 38997324 119461950 -121397367#0 -119461948#1 119461951 23657676 607752895 -27221387 64801336 -38997320#1"/>
    </person>
    <person id="ped103" type="ped_pedestrian" depart="1269.59">
        <walk edges="-686457109 -21621531#6 -21621531#5 -21621531#4 -249597204 334227214#1 334227214#0 -164057494#0 -164057494#1 -164057494#2 164057495#0 164057495#1 164057495#2 292713907#1 116069050#1 117493952#0 117493952#1 -297346907 243673293#3 -243673293#2 31148870#0 31148870#3 31148870#4 116043400#0 116043400#1 249592608 119461950 -121397367#0 -119461948#1 119461951 23657676 607752895 -27221387 -168540416#0 -168540639"/>
    </person>
    <person id="ped104" type="ped_pedestrian" depart="1281.91">
        <walk edges="-686457075 -297648957#7 -297648957#6 -297648957#4 -297648957#3 -297648957#2 -297648957#1 21621531#0 21621531#1 21621531#2 21621531#3 249597204 -334227214#1 -334227214#0 -164057494#0 -164057494#1 -164057494#2 164057495#0 164057495#1 164057495#2 292713907#1 116069050#1 117493952#0 117493952#1 -297346907 243673293#3 243673293#0 23188731#0 196006775#7 196006775#6 196006775#5 196006775#3 196006775#2 196006775#1 196006775#0 170626222#4 170626222#2 170626222#0 342103786#1 -741906174 -741905915#1 741905915#1"/>
    </person>
    <person id="ped106" type="ped_pedestrian" depart="1306.56">
        <walk edges="119015818 334209279#5 334209277#0 334209277#1 334209277#2 334209277#3 334209277#4 334209277#5 334209277#7 838273014#0 838273014#1 170626222#0 170626222#2 170626222#4 196006775#0 196006775#1 196006775#2 196006775#3 196006775#5 196006775#6 196006775#7 23188731#0 -116043935#1 -116043935#0 -116069030 213542111 162513733#3 162513733#1 116069039 116069056#1 116069056#0 249639572#1 249639572#0 121406052#2 161274866 161274865#0 -176628395#0 -176628395#1 -165014739 -128328606#1 1036090315"/>
    </person>
    <person id="ped107" type="ped_pedestrian" depart="1318.89">
        <walk edges="686457080 -21621531#3 249597204 -334227214#1 -334227214#0 -164057494#0 -164057494#1 -164057494#2 164057495#0 164057495#1 164057495#2 292713907#1 116069050#1 117493952#0 117493952#1 -297346907 243673293#3 243673293#0 23188731#0 196006775#7 196006775#6 196006775#5 196006775#3 196006775#2 196006775#1 196006775#0 170626222#4 170626222#2 170626222#0 838273014#1"/>
    </person>
    <person id="ped108" type="ped_pedestrian" depart="1331.22">
        <walk edges="183559717#2 -1237570341#2 -170626222#1 -170626222#3 -170626222#4 -196006775#0 -196006775#1 -196006775#2 -196006775#3 -196006775#5 -196006775#6 -196006775#7 -23188731#2 -31148870#2 -31148870#3 31148870#4"/>
    </person>
    <person id="ped109" type="ped_pedestrian" depart="1343.54">
        <walk edges="-260916233#0 -260916229#0 -260916229#1 196005938 23188731#0 -116043935#1 -672877461"/>
    </person>
    <person id="ped111" type="ped_pedestrian" depart="1368.20">
        <walk edges="170626222#2 170626222#0 686457062#1 686457059#2 686457059#1 686457059#0 31148869#1 -183561423#4 183561423#3 -183561423#2 285819995 285819996#1 285819994#1 125736245#0 38997324"/>
    </person>
    <person id="ped112" type="ped_pedestrian" depart="1380.52">
        <walk edges="-168540416#1 -168540416#0 -27221387 607752895 23657676 119461951 -119461948#1 -121397367#0 119461950 249592608 116043400#1 116043400#0 31148870#4 31148870#3 31148870#0 -243673293#2 243673293#3 -297346907 117493952#1 117493952#0 116069050#1 292713907#1 164057495#2 164057495#1 164057495#0 -164057494#2 -164057494#1 -164057494#0 -334227214#0 -334227214#1 249597204 -21621531#3 -21621531#2 390410261 237402241#0 192960736#7 192960736#6 -192960736#5 -192960736#4 -192960736#3 -192960736#2 192960736#1"/>
    </person>
    <person id="ped113" type="ped_pedestrian" depart="1392.85">
        <walk edges="162513733#0 162513733#1 162513733#3 213542111 -116069030 -116043935#0 -116043935#1 23188731#0 196006775#7 196006775#6 196006775#5 196006775#3 196006775#2 672877463"/>
    </person>
    <person id="ped114" type="ped_pedestrian" depart="1405.17">
        <walk edges="-260916929#0 -116075908#0 -116075908#1 -116075908#2 -260916231 -260916233#1 -260916233#0 -260916229#0 -260916229#1 196005938 23188731#0 243673293#0 243673293#3 -297346907 117493952#1 117493952#0 116069050#1 292713907#1 164057495#2 164057495#1 164057495#0 -164057494#2 -164057494#1 -164057494#0 -334227214#0 -334227214#1 249597204 -21621531#3 -21621531#2 390410261 237402241#0 192960736#7 192960736#6 -192960736#5 -192960736#4 -192960736#3 -192960736#2 686457086"/>
    </person>
    <person id="ped116" type="ped_pedestrian" depart="1429.83">
        <walk edges="192960736#9 192960736#8 237402241#0 390410261 -21621531#2 -21621531#3 249597204 -334227214#1 -334227214#0 27494390#3"/>
    </person>
    <person id="ped117" type="ped_pedestrian" depart="1442.15">
        <walk edges="-48018919#1 48018919#2 48018919#3 48018919#4 48018919#5 334209279#0 334209279#2 334209279#3 334209279#4 334209279#5 334209277#0 334209277#1 334209277#2 334209277#3 334209277#4 334209277#5 334209277#7 838273014#0 838273014#1 170626222#0 170626222#2 170626222#4 196006775#0 196006775#1 196006775#2 196006775#3 196006775#5 196006775#6 196006775#7 23188731#0 243673293#0 243673293#3 -297346907 117493952#1 117493952#0 116069050#1 292713907#1 164057495#2 164057495#1 164057495#0 -164057494#2 -164057494#1 -164057494#0 334227214#0 334227214#1 -249597204 -21621531#4 -21621531#5 -21621531#6"/>
    </person>
    <person id="ped119" type="ped_pedestrian" depart="1466.80">
        <walk edges="192960736#8 237402241#0 390410261 -21621531#2 -21621531#3 249597204 -334227214#1 -334227214#0 -164057494#0 -164057494#1 -164057494#2 164057495#0 164057495#1 164057495#2 292713907#1 116069050#1 117493952#0 117493952#1 -297346907 243673293#3 243673293#0 23188731#0 196006775#7 196006775#6 196006775#5 196006775#3 196006775#2 196006775#1 196006775#0 170626222#4 170626222#2 170626222#0 838273014#1 838273014#0 334209277#7 334209277#5 334209277#4 334209277#3 334209277#2 334209277#1 334209277#0 334209279#5 334209279#4 334209279#3 334209279#2 334209279#0 21621546#4 21621546#3 21621546#2 21621546#0"/>
    </person>
    <person id="ped120" type="ped_pedestrian" depart="1479.13">
        <walk edges="-931723136#2 931723136#0 21621531#1 390410261 237402241#0 192960736#7 192960736#6 -192960736#5 -192960736#4 -192960736#3 -192960736#2 192960736#1"/>
    </person>
    <person id="ped121" type="ped_pedestrian" depart="1491.46">