<?xml version="1.0" encoding="UTF-8"?>

<!-- generated on 2024-11-16 15:43:30.867862 by osmWebWizard.py v1_21_0+0000-d7b3b481c43
<configuration>
    <net-file value="C:\Users\salar\AIProject\src\2024-11-16-15-43-15\osm.net.xml.gz"/>
    <output-trip-file value="C:\Users\salar\AIProject\src\2024-11-16-15-43-15\osm.pedestrian.trips.xml"/>
    <route-file value="C:\Users\salar\AIProject\src\2024-11-16-15-43-15\osm.pedestrian.rou.xml"/>
    <pedestrians value="True"/>
    <prefix value="ped"/>
    <vehicle-class value="pedestrian"/>
    <fringe-factor value="1"/>
    <max-distance value="2000.0"/>
    <insertion-density value="10.0"/>
</configuration>
-->

<routes xmlns:xsi="http://www.w3.org/2001/XMLSchema-instance" xsi:noNamespaceSchemaLocation="http://sumo.dlr.de/xsd/routes_file.xsd">
    <vType id="ped_pedestrian" vClass="pedestrian"/>
    <person id="ped0" depart="0.00" type="ped_pedestrian">
        <walk from="243572238#2" to="-121260114#1"/>
    </person>
    <person id="ped1" depart="12.33" type="ped_pedestrian">
        <walk from="-672298494" to="-448416750#2"/>
    </person>
    <person id="ped2" depart="24.65" type="ped_pedestrian">
        <walk from="334209279#3" to="27494390#4"/>
    </person>
    <person id="ped3" depart="36.98" type="ped_pedestrian">
        <walk from="672886362" to="-183570931#1"/>
    </person>
    <person id="ped4" depart="49.30" type="ped_pedestrian">
        <walk from="1036090314" to="-121397367#0"/>
    </person>
    <person id="ped5" depart="61.63" type="ped_pedestrian">
        <walk from="-432402294#0" to="162513741"/>
    </person>
    <person id="ped6" depart="73.96" type="ped_pedestrian">
        <walk from="-121397362#0" to="-334209277#4"/>
    </person>
    <person id="ped7" depart="86.28" type="ped_pedestrian">
        <walk from="249639572#0" to="171283144"/>
    </person>
    <person id="ped8" depart="98.61" type="ped_pedestrian">
        <walk from="-432402294#1" to="192960736#3"/>
    </person>
    <person id="ped9" depart="110.93" type="ped_pedestrian">
        <walk from="672047539" to="-116069030"/>
    </person>
    <person id="ped10" depart="123.26" type="ped_pedestrian">
        <walk from="672040857" to="297648957#0"/>
    </person>
    <person id="ped11" depart="135.59" type="ped_pedestrian">
        <walk from="-672886370" to="-260916233#0"/>
    </person>
    <person id="ped12" depart="147.91" type="ped_pedestrian">
        <walk from="686457080" to="-672886362"/>
    </person>
    <person id="ped13" depart="160.24" type="ped_pedestrian">
        <walk from="-192960736#11" to="-192960736#4"/>
    </person>
    <person id="ped14" depart="172.57" type="ped_pedestrian">
        <walk from="672877458" to="196006775#7"/>
    </person>
    <person id="ped15" depart="184.89" type="ped_pedestrian">
        <walk from="672040860" to="334209277#3"/>
    </person>
    <person id="ped16" depart="197.22" type="ped_pedestrian">
        <walk from="169231161#0" to="686457101"/>
    </person>
    <person id="ped17" depart="209.54" type="ped_pedestrian">
        <walk from="-686457075" to="183552395"/>
    </person>
    <person id="ped18" depart="221.87" type="ped_pedestrian">
        <walk from="672877441" to="21621546#0"/>
    </person>
    <person id="ped19" depart="234.20" type="ped_pedestrian">
        <walk from="672877472" to="183570938"/>
    </person>
    <person id="ped20" depart="246.52" type="ped_pedestrian">
        <walk from="297648957#7" to="-128328606#1"/>
    </person>
    <person id="ped21" depart="258.85" type="ped_pedestrian">
        <walk from="-460828855" to="-672877453"/>
    </person>
    <person id="ped22" depart="271.17" type="ped_pedestrian">
        <walk from="-183561422#1" to="-46875342#2"/>
    </person>
    <person id="ped23" depart="283.50" type="ped_pedestrian">
        <walk from="-192960736#8" to="-672877442"/>
    </person>
    <person id="ped24" depart="295.83" type="ped_pedestrian">
        <walk from="237402241#1" to="-686457063"/>
    </person>
    <person id="ped25" depart="308.15" type="ped_pedestrian">
        <walk from="-686457068" to="-371625508"/>
    </person>
    <person id="ped26" depart="320.48" type="ped_pedestrian">
        <walk from="-672047548" to="686457060#0"/>
    </person>
    <person id="ped27" depart="332.80" type="ped_pedestrian">
        <walk from="249592608" to="213542111"/>
    </person>
    <person id="ped28" depart="345.13" type="ped_pedestrian">
        <walk from="-27494390#5" to="334209277#2"/>
    </person>
    <person id="ped29" depart="357.46" type="ped_pedestrian">
        <walk from="-27172797#1" to="-686457075"/>
    </person>
    <person id="ped30" depart="369.78" type="ped_pedestrian">
        <walk from="79342516#1" to="243572239"/>
    </person>
    <person id="ped31" depart="382.11" type="ped_pedestrian">
        <walk from="183561419" to="28708957"/>
    </person>
    <person id="ped32" depart="394.43" type="ped_pedestrian">
        <walk from="672877454" to="451632395#1"/>
    </person>
    <person id="ped33" depart="406.76" type="ped_pedestrian">
        <walk from="-460828859" to="-1251779646#0"/>
    </person>
    <person id="ped34" depart="419.09" type="ped_pedestrian">
        <walk from="-672886328" to="-672298481"/>
    </person>
    <person id="ped35" depart="431.41" type="ped_pedestrian">
        <walk from="-371850394" to="686457064"/>
    </person>
    <person id="ped36" depart="443.74" type="ped_pedestrian">
        <walk from="672886338" to="-672886328"/>
    </person>
    <person id="ped37" depart="456.07" type="ped_pedestrian">
        <walk from="254502161" to="-686457101"/>
    </person>
    <person id="ped38" depart="468.39" type="ped_pedestrian">
        <walk from="686437316" to="119461948#1"/>
    </person>
    <person id="ped39" depart="480.72" type="ped_pedestrian">
        <walk from="-672047546" to="-659704397"/>
    </person>
    <person id="ped40" depart="493.04" type="ped_pedestrian">
        <walk from="183561423#0" to="-672047544"/>
    </person>
    <person id="ped41" depart="505.37" type="ped_pedestrian">
        <walk from="192960736#10" to="672886374"/>
    </person>
    <person id="ped42" depart="517.70" type="ped_pedestrian">
        <walk from="-686457107" to="-432402294#0"/>
    </person>
    <person id="ped43" depart="530.02" type="ped_pedestrian">
        <walk from="931723136#1" to="164057494#2"/>
    </person>
    <person id="ped44" depart="542.35" type="ped_pedestrian">
        <walk from="-192960736#10" to="-161274865#0"/>
    </person>
    <person id="ped45" depart="554.67" type="ped_pedestrian">
        <walk from="-196006775#6" to="218871551#1"/>
    </person>
    <person id="ped46" depart="567.00" type="ped_pedestrian">
        <walk from="48018919#5" to="1036090314"/>
    </person>
    <person id="ped47" depart="579.33" type="ped_pedestrian">
        <walk from="-170626222#3" to="-686457081"/>
    </person>
    <person id="ped48" depart="591.65" type="ped_pedestrian">
        <walk from="931723136#0" to="168540639"/>
    </person>
    <person id="ped49" depart="603.98" type="ped_pedestrian">
        <walk from="686457099" to="672877471"/>
    </person>
    <person id="ped50" depart="616.30" type="ped_pedestrian">
        <walk from="-116075908#2" to="328458082"/>
    </person>
    <person id="ped51" depart="628.63" type="ped_pedestrian">
        <walk from="285819995" to="169231161#1"/>
    </person>
    <person id="ped52" depart="640.96" type="ped_pedestrian">
        <walk from="-672047548" to="243673293#0"/>
    </person>
    <person id="ped53" depart="653.28" type="ped_pedestrian">
        <walk from="-204133126" to="116069041#1"/>
    </person>
    <person id="ped54" depart="665.61" type="ped_pedestrian">
        <walk from="117768739" to="686457073"/>
    </person>
    <person id="ped55" depart="677.93" type="ped_pedestrian">
        <walk from="672886336" to="-672047545"/>
    </person>
    <person id="ped56" depart="690.26" type="ped_pedestrian">
        <walk from="161405520#1" to="-297648957#10"/>
    </person>
    <person id="ped57" depart="702.59" type="ped_pedestrian">
        <walk from="686437314" to="672886328"/>
    </person>
    <person id="ped58" depart="714.91" type="ped_pedestrian">
        <walk from="-672877462" to="243572238#2"/>
    </person>
    <person id="ped59" depart="727.24" type="ped_pedestrian">
        <walk from="213542111" to="-260916229#1"/>
    </person>
    <person id="ped60" depart="739.56" type="ped_pedestrian">
        <walk from="447930443" to="170351329#0"/>
    </person>
    <person id="ped61" depart="751.89" type="ped_pedestrian">
        <walk from="460828855" to="168540640"/>
    </person>
    <person id="ped62" depart="764.22" type="ped_pedestrian">
        <walk from="-1067701443" to="-672886343"/>
    </person>
    <person id="ped63" depart="776.54" type="ped_pedestrian">
        <walk from="-119019661#2" to="686457056"/>
    </person>
    <person id="ped64" depart="788.87" type="ped_pedestrian">
        <walk from="672886341" to="672877444"/>
    </person>
    <person id="ped65" depart="801.20" type="ped_pedestrian">
        <walk from="-672877471" to="-168540416#2"/>
    </person>
    <person id="ped66" depart="813.52" type="ped_pedestrian">
        <walk from="672886339" to="686457068"/>
    </person>
    <person id="ped67" depart="825.85" type="ped_pedestrian">
        <walk from="-183570931#0" to="125736245#1"/>
    </person>
    <person id="ped68" depart="838.17" type="ped_pedestrian">
        <walk from="-176628395#3" to="436996400#1"/>
    </person>
    <person id="ped69" depart="850.50" type="ped_pedestrian">
        <walk from="447930446" to="-218871551#0"/>
    </person>
    <person id="ped70" depart="862.83" type="ped_pedestrian">
        <walk from="121406052#1" to="176628395#3"/>
    </person>
    <person id="ped71" depart="875.15" type="ped_pedestrian">
        <walk from="-672047546" to="672886332"/>
    </person>
    <person id="ped72" depart="887.48" type="ped_pedestrian">
        <walk from="1036090315" to="-389581874"/>
    </person>
    <person id="ped73" depart="899.80" type="ped_pedestrian">
        <walk from="170351329#0" to="334209277#3"/>
    </person>
    <person id="ped74" depart="912.13" type="ped_pedestrian">
        <walk from="-334209277#7" to="-672886322#0"/>
    </person>
    <person id="ped75" depart="924.46" type="ped_pedestrian">
        <walk from="838273014#1" to="249639572#0"/>
    </person>
    <person id="ped76" depart="936.78" type="ped_pedestrian">
        <walk from="116069050#2" to="165014735#0"/>
    </person>
    <person id="ped77" depart="949.11" type="ped_pedestrian">
        <walk from="-21621531#7" to="-448624838"/>
    </person>
    <person id="ped78" depart="961.43" type="ped_pedestrian">
        <walk from="-672886366" to="192960736#2"/>
    </person>
    <person id="ped79" depart="973.76" type="ped_pedestrian">
        <walk from="-460828869" to="-432402294#1"/>
    </person>
    <person id="ped80" depart="986.09" type="ped_pedestrian">
        <walk from="-183552395" to="23188731#0"/>
    </person>
    <person id="ped81" depart="998.41" type="ped_pedestrian">
        <walk from="-460828859" to="674239312#5"/>
    </person>
    <person id="ped82" depart="1010.74" type="ped_pedestrian">
        <walk from="672877470" to="-183552395"/>
    </person>
    <person id="ped83" depart="1023.06" type="ped_pedestrian">
        <walk from="-48018919#4" to="27172797#1"/>
    </person>
    <person id="ped84" depart="1035.39" type="ped_pedestrian">
        <walk from="-38997320#1" to="-23188731#2"/>
    </person>
    <person id="ped85" depart="1047.72" type="ped_pedestrian">
        <walk from="686457059#3" to="183570932"/>
    </person>
    <person id="ped86" depart="1060.04" type="ped_pedestrian">
        <walk from="121397367#1" to="46875342#2"/>
    </person>
    <person id="ped87" depart="1072.37" type="ped_pedestrian">
        <walk from="672040860" to="-30193493"/>
    </person>
    <person id="ped88" depart="1084.70" type="ped_pedestrian">
        <walk from="-192960736#4" to="116043935#1"/>
    </person>
    <person id="ped89" depart="1097.02" type="ped_pedestrian">
        <walk from="1036090316" to="121260116"/>
    </person>
    <person id="ped90" depart="1109.35" type="ped_pedestrian">
        <walk from="334209277#2" to="27494390#1"/>
    </person>
    <person id="ped91" depart="1121.67" type="ped_pedestrian">
        <walk from="686457115" to="-192960736#6"/>
    </person>
    <person id="ped92" depart="1134.00" type="ped_pedestrian">
        <walk from="-686457110" to="-672886367"/>
    </person>
    <person id="ped93" depart="1146.33" type="ped_pedestrian">
        <walk from="672877472" to="-672040850"/>
    </person>
    <person id="ped94" depart="1158.65" type="ped_pedestrian">
        <walk from="-30193493" to="117398898"/>
    </person>
    <person id="ped95" depart="1170.98" type="ped_pedestrian">
        <walk from="1036090314" to="-672877443"/>
    </person>
    <person id="ped96" depart="1183.30" type="ped_pedestrian">
        <walk from="-672040852" to="686437413"/>
    </person>
    <person id="ped97" depart="1195.63" type="ped_pedestrian">
        <walk from="116069056#1" to="672877471"/>
    </person>
    <person id="ped98" depart="1207.96" type="ped_pedestrian">
        <walk from="183536059" to="-164057494#1"/>
    </person>
    <person id="ped99" depart="1220.28" type="ped_pedestrian">
        <walk from="995509699" to="672877448"/>
    </person>
    <person id="ped100" depart="1232.61" type="ped_pedestrian">
        <walk from="686457093" to="686437418"/>
    </person>
    <person id="ped101" depart="1244.93" type="ped_pedestrian">
        <walk from="672877460" to="-27494390#0"/>
    </person>
    <person id="ped102" depart="1257.26" type="ped_pedestrian">
        <walk from="125736245#1" to="-38997320#1"/>
    </person>
    <person id="ped103" depart="1269.59" type="ped_pedestrian">
        <walk from="-686457109" to="-168540639"/>
    </person>
    <person id="ped104" depart="1281.91" type="ped_pedestrian">
        <walk from="-686457075" to="741905915#1"/>
    </person>
    <person id="ped105" depart="1294.24" type="ped_pedestrian">
        <walk from="-672047546" to="46875342#2"/>
    </person>
    <person id="ped106" depart="1306.56" type="ped_pedestrian">
        <walk from="119015818" to="1036090315"/>
    </person>
    <person id="ped107" depart="1318.89" type="ped_pedestrian">
        <walk from="686457080" to="838273014#1"/>
    </person>
    <person id="ped108" depart="1331.22" type="ped_pedestrian">
        <walk from="183559717#2" to="31148870#4"/>
    </person>
    <person id="ped109" depart="1343.54" type="ped_pedestrian">
        <walk from="-260916233#0" to="-672877461"/>
    </person>
    <person id="ped110" depart="1355.87" type="ped_pedestrian">
        <walk from="686457093" to="183580623#1"/>
    </person>
    <person id="ped111" depart="1368.20" type="ped_pedestrian">
        <walk from="170626222#2" to="38997324"/>
    </person>
    <person id="ped112" depart="1380.52" type="ped_pedestrian">
        <walk from="-168540416#1" to="192960736#1"/>
    </person>
    <person id="ped113" depart="1392.85" type="ped_pedestrian">
        <walk from="162513733#0" to="672877463"/>
    </person>
    <person id="ped114" depart="1405.17" type="ped_pedestrian">
        <walk from="-260916929#0" to="686457086"/>
    </person>
    <person id="ped115" depart="1417.50" type="ped_pedestrian">
        <walk from="-183561423#0" to="-30024298"/>
    </person>
    <person id="ped116" depart="1429.83" type="ped_pedestrian">
        <walk from="192960736#9" to="27494390#3"/>
    </person>
    <person id="ped117" depart="1442.15" type="ped_pedestrian">
        <walk from="-48018919#1" to="-21621531#6"/>
    </person>
    <person id="ped118" depart="1454.48" type="ped_pedestrian">
        <walk from="672886360" to="-607752895"/>
    </person>
    <person id="ped119" depart="1466.80" type="ped_pedestrian">
        <walk from="192960736#8" to="21621546#0"/>
    </person>
    <person id="ped120" depart="1479.13" type="ped_pedestrian">
        <walk from="-931723136#2" to="192960736#1"/>
    </person>
    <person id="ped121" depart="1491.46" type="ped_pedestrian">
        <walk from="165014738#2" to="686457059#2"/>
    </person>
    <person id="ped122" depart="1503.78" type="ped_pedestrian">
        <walk from="-334209279#3" to="31148870#0"/>
    </person>
    <person id="ped123" depart="1516.11" type="ped_pedestrian">
        <walk from="-48018919#4" to="-686457101"/>
    </person>
    <person id="ped124" depart="1528.43" type="ped_pedestrian">
        <walk from="27494390#0" to="-672877464"/>
    </person>
    <person id="ped125" depart="1540.76" type="ped_pedestrian">
        <walk from="-672886330" to="427965004"/>
    </person>
    <person id="ped126" depart="1553.09" type="ped_pedestrian">
        <walk from="-183559717#0" to="119019661#2"/>
    </person>
    <person id="ped127" depart="1565.41" type="ped_pedestrian">
        <walk from="931723136#2" to="931723136#0"/>
    </person>
    <person id="ped128" depart="1577.74" type="ped_pedestrian">
        <walk from="-183559717#0" to="-38997320#0"/>
    </person>
    <person id="ped129" depart="1590.06" type="ped_pedestrian">
        <walk from="-672047546" to="686457059#1"/>
    </person>
    <person id="ped130" depart="1602.39" type="ped_pedestrian">
        <walk from="672886344" to="672886341"/>
    </person>
    <person id="ped131" depart="1614.72" type="ped_pedestrian">
        <walk from="-686457067" to="-260916929#0"/>
    </person>
    <person id="ped132" depart="1627.04" type="ped_pedestrian">
        <walk from="672877446" to="297648957#6"/>
    </person>
    <person id="ped133" depart="1639.37" type="ped_pedestrian">
        <walk from="21621531#1" to="741905999"/>
    </person>
    <person id="ped134" depart="1651.70" type="ped_pedestrian">
        <walk from="251539540#1" to="-116069052"/>
    </person>
    <person id="ped135" depart="1664.02" type="ped_pedestrian">
        <walk from="672047546" to="-672877463"/>
    </person>
    <person id="ped136" depart="1676.35" type="ped_pedestrian">
        <walk from="260978572#0" to="686457061#0"/>
    </person>
    <person id="ped137" depart="1688.67" type="ped_pedestrian">
        <walk from="-23657677" to="-21621531#2"/>
    </person>
    <person id="ped138" depart="1701.00" type="ped_pedestrian">
        <walk from="-196006775#3" to="183558506"/>
    </person>
    <person id="ped139" depart="1713.33" type="ped_pedestrian">
        <walk from="-672298489" to="204133126"/>
    </person>
    <person id="ped140" depart="1725.65" type="ped_pedestrian">
        <walk from="31148870#4" to="-334209279#2"/>
    </person>
    <person id="ped141" depart="1737.98" type="ped_pedestrian">
        <walk from="23660050#1" to="-672047545"/>
    </person>
    <person id="ped142" depart="1750.30" type="ped_pedestrian">
        <walk from="125958682#1" to="674239312#5"/>
    </person>
    <person id="ped143" depart="1762.63" type="ped_pedestrian">
        <walk from="672877457" to="-192960736#11"/>
    </person>
    <person id="ped144" depart="1774.96" type="ped_pedestrian">
        <walk from="1036090316" to="-672877441"/>
    </person>
    <person id="ped145" depart="1787.28" type="ped_pedestrian">
        <walk from="-116043400#1" to="448624838"/>
    </person>
    <person id="ped146" depart="1799.61" type="ped_pedestrian">
        <walk from="243572238#0" to="-672047543"/>
    </person>
    <person id="ped147" depart="1811.93" type="ped_pedestrian">
        <walk from="342103786#1" to="183552395"/>
    </person>
    <person id="ped148" depart="1824.26" type="ped_pedestrian">
        <walk from="116043400#0" to="-116075908#1"/>
    </person>
    <person id="ped149" depart="1836.59" type="ped_pedestrian">
        <walk from="-183559717#2" to="672886348"/>
    </person>
    <person id="ped150" depart="1848.91" type="ped_pedestrian">
        <walk from="674239312#3" to="171283144"/>
    </person>
    <person id="ped151" depart="1861.24" type="ped_pedestrian">
        <walk from="672877446" to="192960736#0"/>
    </person>
    <person id="ped152" depart="1873.56" type="ped_pedestrian">
        <walk from="-249639572#2" to="-21621550#1"/>
    </person>
    <person id="ped153" depart="1885.89" type="ped_pedestrian">
        <walk from="-672877472" to="672886375"/>
    </person>
    <person id="ped154" depart="1898.22" type="ped_pedestrian">
        <walk from="55029140" to="672877471"/>
    </person>
    <person id="ped155" depart="1910.54" type="ped_pedestrian">
        <walk from="672886375" to="-371850394"/>
    </person>
    <person id="ped156" depart="1922.87" type="ped_pedestrian">
        <walk from="-672040852" to="-196005938"/>
    </person>
    <person id="ped157" depart="1935.19" type="ped_pedestrian">
        <walk from="460828859" to="672886349"/>
    </person>
    <person id="ped158" depart="1947.52" type="ped_pedestrian">
        <walk from="-686457115" to="21621546#3"/>
    </person>
    <person id="ped159" depart="1959.85" type="ped_pedestrian">
        <walk from="-260916231" to="686457057"/>
    </person>
    <person id="ped160" depart="1972.17" type="ped_pedestrian">
        <walk from="672886322#0" to="686457107"/>
    </person>
    <person id="ped161" depart="1984.50" type="ped_pedestrian">
        <walk from="672047540" to="672886344"/>
    </person>
    <person id="ped162" depart="1996.83" type="ped_pedestrian">
        <walk from="-121260114#1" to="334209279#3"/>
    </person>
    <person id="ped163" depart="2009.15" type="ped_pedestrian">
        <walk from="-672886354" to="686457058"/>
    </person>
    <person id="ped164" depart="2021.48" type="ped_pedestrian">
        <walk from="672040852" to="672886321"/>
    </person>
    <person id="ped165" depart="2033.80" type="ped_pedestrian">
        <walk from="672047540" to="-672047548"/>
    </person>
    <person id="ped166" depart="2046.13" type="ped_pedestrian">
        <walk from="48018919#1" to="-196006775#5"/>
    </person>
    <person id="ped167" depart="2058.46" type="ped_pedestrian">
        <walk from="672886332" to="672877469"/>
    </person>
    <person id="ped168" depart="2070.78" type="ped_pedestrian">
        <walk from="-447930448" to="672047545"/>
    </person>
    <person id="ped169" depart="2083.11" type="ped_pedestrian">
        <walk from="119461950" to="-672877469"/>
    </person>
    <person id="ped170" depart="2095.43" type="ped_pedestrian">
        <walk from="55029140" to="-460828855"/>
    </person>
    <person id="ped171" depart="2107.76" type="ped_pedestrian">
        <walk from="-121260114#0" to="-31148870#4"/>
    </person>
    <person id="ped172" depart="2120.09" type="ped_pedestrian">
        <walk from="-672886348" to="672886321"/>
    </person>
    <person id="ped173" depart="2132.41" type="ped_pedestrian">
        <walk from="686457091" to="-672877443"/>
    </person>
    <person id="ped174" depart="2144.74" type="ped_pedestrian">
        <walk from="243673293#0" to="-686457107"/>
    </person>
    <person id="ped175" depart="2157.06" type="ped_pedestrian">
        <walk from="686457112" to="169231161#0"/>
    </person>
    <person id="ped176" depart="2169.39" type="ped_pedestrian">
        <walk from="686457062#0" to="-21621531#2"/>
    </person>
    <person id="ped177" depart="2181.72" type="ped_pedestrian">
        <walk from="686457099" to="-297648957#10"/>
    </person>
    <person id="ped178" depart="2194.04" type="ped_pedestrian">
        <walk from="686457087" to="-672047547"/>
    </person>
    <person id="ped179" depart="2206.37" type="ped_pedestrian">
        <walk from="-196006775#5" to="116069041#1"/>
    </person>
    <person id="ped180" depart="2218.69" type="ped_pedestrian">
        <walk from="334209277#2" to="-672886324"/>
    </person>
    <person id="ped181" depart="2231.02" type="ped_pedestrian">
        <walk from="204133127#0" to="164057495#1"/>
    </person>
    <person id="ped182" depart="2243.35" type="ped_pedestrian">
        <walk from="-686457087" to="183570937"/>
    </person>
    <person id="ped183" depart="2255.67" type="ped_pedestrian">
        <walk from="-672040859" to="300606719#1"/>
    </person>
    <person id="ped184" depart="2268.00" type="ped_pedestrian">
        <walk from="-1067701444" to="686437418"/>
    </person>
    <person id="ped185" depart="2280.33" type="ped_pedestrian">
        <walk from="170351329#0" to="327846126"/>
    </person>
    <person id="ped186" depart="2292.65" type="ped_pedestrian">
        <walk from="342103786#1" to="27221388"/>
    </person>
    <person id="ped187" depart="2304.98" type="ped_pedestrian">
        <walk from="-686457061#0" to="-183536059"/>
    </person>
    <person id="ped188" depart="2317.30" type="ped_pedestrian">
        <walk from="260978572#1" to="-672886351"/>
    </person>
    <person id="ped189" depart="2329.63" type="ped_pedestrian">
        <walk from="-672886324" to="672877459"/>
    </person>
    <person id="ped190" depart="2341.96" type="ped_pedestrian">
        <walk from="328458081" to="-672877464"/>
    </person>
    <person id="ped191" depart="2354.28" type="ped_pedestrian">
        <walk from="-672877473" to="-741905915#1"/>
    </person>
    <person id="ped192" depart="2366.61" type="ped_pedestrian">
        <walk from="-686457110" to="-672877460"/>
    </person>
    <person id="ped193" depart="2378.93" type="ped_pedestrian">
        <walk from="-21621550#1" to="-995509699"/>
    </person>
    <person id="ped194" depart="2391.26" type="ped_pedestrian">
        <walk from="686457062#1" to="27494390#5"/>
    </person>
    <person id="ped195" depart="2403.59" type="ped_pedestrian">
        <walk from="674239312#2" to="21621531#5"/>
    </person>
    <person id="ped196" depart="2415.91" type="ped_pedestrian">
        <walk from="-672877465" to="176628395#1"/>
    </person>
    <person id="ped197" depart="2428.24" type="ped_pedestrian">
        <walk from="-1067701443" to="-672877451"/>
    </person>
    <person id="ped198" depart="2440.56" type="ped_pedestrian">
        <walk from="116043935#0" to="183581228"/>
    </person>
    <person id="ped199" depart="2452.89" type="ped_pedestrian">
        <walk from="254502161" to="121260114#1"/>
    </person>
    <person id="ped200" depart="2465.22" type="ped_pedestrian">
        <walk from="116069056#0" to="-38997320#1"/>
    </person>
    <person id="ped201" depart="2477.54" type="ped_pedestrian">
        <walk from="121397367#1" to="674239312#1"/>
    </person>
    <person id="ped202" depart="2489.87" type="ped_pedestrian">
        <walk from="55029140" to="-27494390#4"/>
    </person>
    <person id="ped203" depart="2502.19" type="ped_pedestrian">
        <walk from="-183561423#4" to="165014733"/>
    </person>
    <person id="ped204" depart="2514.52" type="ped_pedestrian">
        <walk from="23660050#0" to="-672886360"/>
    </person>
    <person id="ped205" depart="2526.85" type="ped_pedestrian">
        <walk from="672047547" to="427965002"/>
    </person>
    <person id="ped206" depart="2539.17" type="ped_pedestrian">
        <walk from="27494390#1" to="-448624838"/>
    </person>
    <person id="ped207" depart="2551.50" type="ped_pedestrian">
        <walk from="-334209277#4" to="-121260114#0"/>
    </person>
    <person id="ped208" depart="2563.83" type="ped_pedestrian">
        <walk from="-55029140" to="121406052#1"/>
    </person>
    <person id="ped209" depart="2576.15" type="ped_pedestrian">
        <walk from="672877461" to="-183559717#0"/>
    </person>
    <person id="ped210" depart="2588.48" type="ped_pedestrian">
        <walk from="-79342544#0" to="218871551#3"/>
    </person>
    <person id="ped211" depart="2600.80" type="ped_pedestrian">
        <walk from="-334209277#0" to="297346907"/>
    </person>
    <person id="ped212" depart="2613.13" type="ped_pedestrian">
        <walk from="128328606#1" to="-55029139"/>
    </person>
    <person id="ped213" depart="2625.46" type="ped_pedestrian">
        <walk from="260916231" to="-116043935#1"/>
    </person>
    <person id="ped214" depart="2637.78" type="ped_pedestrian">
        <walk from="427965002" to="448576276"/>
    </person>
    <person id="ped215" depart="2650.11" type="ped_pedestrian">
        <walk from="-196006775#2" to="1067701443"/>
    </person>
    <person id="ped216" depart="2662.43" type="ped_pedestrian">
        <walk from="-29317631" to="686457081"/>
    </person>
    <person id="ped217" depart="2674.76" type="ped_pedestrian">
        <walk from="165014735#0" to="-164057494#1"/>
    </person>
    <person id="ped218" depart="2687.09" type="ped_pedestrian">
        <walk from="-672040850" to="672877459"/>
    </person>
    <person id="ped219" depart="2699.41" type="ped_pedestrian">
        <walk from="119019661#1" to="672040850"/>
    </person>
    <person id="ped220" depart="2711.74" type="ped_pedestrian">
        <walk from="260983034" to="741905999"/>
    </person>
    <person id="ped221" depart="2724.06" type="ped_pedestrian">
        <walk from="192960736#9" to="686457071"/>
    </person>
    <person id="ped222" depart="2736.39" type="ped_pedestrian">
        <walk from="672886362" to="21621531#2"/>
    </person>
    <person id="ped223" depart="2748.72" type="ped_pedestrian">
        <walk from="327846126" to="162513733#3"/>
    </person>
    <person id="ped224" depart="2761.04" type="ped_pedestrian">
        <walk from="672877443" to="176628395#1"/>
    </person>
    <person id="ped225" depart="2773.37" type="ped_pedestrian">
        <walk from="672886372" to="38632573"/>
    </person>
    <person id="ped226" depart="2785.69" type="ped_pedestrian">
        <walk from="121406052#1" to="-672047541"/>
    </person>
    <person id="ped227" depart="2798.02" type="ped_pedestrian">
        <walk from="-659704397" to="243572238#1"/>
    </person>