<?xml version="1.0" encoding="UTF-8"?>

<!-- generated on 2024-11-16 15:43:33.507974 by osmWebWizard.py v1_21_0+0000-d7b3b481c43
<configuration>
    <net-file value="C:\Users\salar\AIProject\src\2024-11-16-15-43-15\osm.net.xml.gz"/>
    <output-trip-file value="C:\Users\salar\AIProject\src\2024-11-16-15-43-15\osm.ship.trips.xml"/>
    <route-file value="C:\Users\salar\AIProject\src\2024-11-16-15-43-15\osm.ship.rou.xml"/>
    <prefix value="ship"/>
    <fringe-start-attributes value="departSpeed=&quot;max&quot;"/>
    <vehicle-class value="ship"/>
    <fringe-factor value="40"/>
    <vclass value="ship"/>
    <validate value="True"/>
    <insertion-density value="2.0"/>
</configuration>
-->

<!-- generated on 2024-11-16 15:43:33 by Eclipse SUMO duarouter Version 1.21.0
<duarouterConfiguration xmlns:xsi="http://www.w3.org/2001/XMLSchema-instance" xsi:noNamespaceSchemaLocation="http://sumo.dlr.de/xsd/duarouterConfiguration.xsd">

    <input>
        <net-file value="C:\Users\salar\AIProject\src\2024-11-16-15-43-15\osm.net.xml.gz"/>
        <route-files value="C:\Users\salar\AIProject\src\2024-11-16-15-43-15\osm.ship.trips.xml"/>
    </input>

    <output>
        <output-file value="C:\Users\salar\AIProject\src\2024-11-16-15-43-15\osm.ship.trips.xml.tmp"/>
        <alternatives-output value="NUL"/>
        <write-trips value="true"/>
    </output>

    <time>
        <begin value="0.0"/>
        <end value="3600.0"/>
    </time>

    <report>
        <no-warnings value="true"/>
        <ignore-errors value="true"/>
        <no-step-log value="true"/>
    </report>

</duarouterConfiguration>
-->

<routes xmlns:xsi="http://www.w3.org/2001/XMLSchema-instance" xsi:noNamespaceSchemaLocation="http://sumo.dlr.de/xsd/routes_file.xsd"/>
