<?xml version="1.0" encoding="UTF-8"?>

<!-- generated on 2024-11-16 15:43:29.677719 by osmWebWizard.py v1_21_0+0000-d7b3b481c43
<configuration>
    <net-file value="C:\Users\salar\AIProject\src\2024-11-16-15-43-15\osm.net.xml.gz"/>
    <output-trip-file value="C:\Users\salar\AIProject\src\2024-11-16-15-43-15\osm.motorcycle.trips.xml"/>
    <route-file value="C:\Users\salar\AIProject\src\2024-11-16-15-43-15\osm.motorcycle.rou.xml"/>
    <prefix value="motorcycle"/>
    <trip-attributes value="departLane=&quot;best&quot;"/>
    <fringe-start-attributes value="departSpeed=&quot;max&quot;"/>
    <vehicle-class value="motorcycle"/>
    <fringe-factor value="2"/>
    <vclass value="motorcycle"/>
    <via-edge-types value="highway.motorway,highway.motorway_link,highway.trunk_link,highway.primary_link,highway.secondary_link,highway.tertiary_link"/>
    <max-distance value="1200.0"/>
    <remove-loops value="True"/>
    <validate value="True"/>
    <insertion-density value="4.0"/>
</configuration>
-->

<!-- generated on 2024-11-16 15:43:29 by Eclipse SUMO duarouter Version 1.21.0
<duarouterConfiguration xmlns:xsi="http://www.w3.org/2001/XMLSchema-instance" xsi:noNamespaceSchemaLocation="http://sumo.dlr.de/xsd/duarouterConfiguration.xsd">

    <input>
        <net-file value="C:\Users\salar\AIProject\src\2024-11-16-15-43-15\osm.net.xml.gz"/>
        <route-files value="C:\Users\salar\AIProject\src\2024-11-16-15-43-15\osm.motorcycle.trips.xml"/>
    </input>

    <output>
        <output-file value="C:\Users\salar\AIProject\src\2024-11-16-15-43-15\osm.motorcycle.trips.xml.tmp"/>
        <alternatives-output value="NUL"/>
        <write-trips value="true"/>
    </output>

    <processing>
        <remove-loops value="true"/>
    </processing>

    <time>
        <begin value="0.0"/>
        <end value="3600.0"/>
    </time>

    <report>
        <no-warnings value="true"/>
        <ignore-errors value="true"/>
        <no-step-log value="true"/>
    </report>

</duarouterConfiguration>
-->

<routes xmlns:xsi="http://www.w3.org/2001/XMLSchema-instance" xsi:noNamespaceSchemaLocation="http://sumo.dlr.de/xsd/routes_file.xsd">
    <vType id="motorcycle_motorcycle" vClass="motorcycle"/>
    <trip id="motorcycle0" type="motorcycle_motorcycle" depart="0.00" departLane="best" from="196006775#3" to="-116249634#2"/>
    <trip id="motorcycle1" type="motorcycle_motorcycle" depart="27.78" departLane="best" from="249597637#0" to="-22744737#0"/>
    <trip id="motorcycle2" type="motorcycle_motorcycle" depart="55.56" departLane="best" from="22744737#1" to="-22087342#3"/>
    <trip id="motorcycle3" type="motorcycle_motorcycle" depart="83.34" departLane="best" from="31148872#3" to="164057494#0"/>
    <trip id="motorcycle4" type="motorcycle_motorcycle" depart="111.12" departLane="best" from="-334211924#2" to="-116249634#5"/>
    <trip id="motorcycle5" type="motorcycle_motorcycle" depart="138.90" departLane="best" from="-22584015" to="-116249634#3"/>
    <trip id="motorcycle6" type="motorcycle_motorcycle" depart="166.68" departLane="best" from="116249634#3" to="22580060#12"/>
    <trip id="motorcycle7" type="motorcycle_motorcycle" depart="194.46" departLane="best" from="213542111" to="125585521"/>
    <trip id="motorcycle8" type="motorcycle_motorcycle" depart="222.25" departLane="best" from="-22584018#0" to="183567020#1"/>
    <trip id="motorcycle9" type="motorcycle_motorcycle" depart="250.03" departLane="best" from="27172795#1" to="-116043937#2"/>
    <trip id="motorcycle10" type="motorcycle_motorcycle" depart="277.81" departLane="best" departSpeed="max" from="27172795#0" to="22580060#8"/>
    <trip id="motorcycle11" type="motorcycle_motorcycle" depart="305.59" departLane="best" from="-29461221#4" to="-21621531#7"/>
    <trip id="motorcycle12" type="motorcycle_motorcycle" depart="333.37" departLane="best" from="-4057377" to="29461221#5"/>
    <trip id="motorcycle13" type="motorcycle_motorcycle" depart="361.15" departLane="best" departSpeed="max" from="-165014737#1" to="-170626222#3"/>
    <trip id="motorcycle15" type="motorcycle_motorcycle" depart="416.71" departLane="best" departSpeed="max" from="27172795#0" to="-22744742#10"/>
    <trip id="motorcycle16" type="motorcycle_motorcycle" depart="444.49" departLane="best" departSpeed="max" from="117397447#0" to="55029140"/>
    <trip id="motorcycle17" type="motorcycle_motorcycle" depart="472.27" departLane="best" from="31148872#0" to="-1276546193"/>
    <trip id="motorcycle18" type="motorcycle_motorcycle" depart="500.05" departLane="best" from="27494390#4" to="-196006775#5"/>
    <trip id="motorcycle19" type="motorcycle_motorcycle" depart="527.83" departLane="best" from="-297648957#3" to="-170626222#3"/>
    <trip id="motorcycle20" type="motorcycle_motorcycle" depart="555.61" departLane="best" from="22580060#1" to="-119015824#0"/>
    <trip id="motorcycle21" type="motorcycle_motorcycle" depart="583.39" departLane="best" departSpeed="max" from="-22584020#1" to="-260916929#2"/>
    <trip id="motorcycle23" type="motorcycle_motorcycle" depart="638.96" departLane="best" from="-170626222#1" to="-249639572#2"/>
    <trip id="motorcycle24" type="motorcycle_motorcycle" depart="666.74" departLane="best" from="196006775#1" to="31148870#3"/>
    <trip id="motorcycle25" type="motorcycle_motorcycle" depart="694.52" departLane="best" from="-31148870#3" to="-22580060#8"/>
    <trip id="motorcycle26" type="motorcycle_motorcycle" depart="722.30" departLane="best" from="-243572238#1" to="389582044"/>
    <trip id="motorcycle28" type="motorcycle_motorcycle" depart="777.86" departLane="best" from="-21621540#6" to="-22744742#10"/>
    <trip id="motorcycle29" type="motorcycle_motorcycle" depart="805.64" departLane="best" from="-21621540#1" to="-31993520#2"/>
    <trip id="motorcycle30" type="motorcycle_motorcycle" depart="833.42" departLane="best" departSpeed="max" from="79342544#0" to="21621531#6"/>
    <trip id="motorcycle31" type="motorcycle_motorcycle" depart="861.20" departLane="best" from="-119019661#2" to="-22580060#10"/>
    <trip id="motorcycle32" type="motorcycle_motorcycle" depart="888.98" departLane="best" from="29461206#1" to="-260916233#0"/>
    <trip id="motorcycle33" type="motorcycle_motorcycle" depart="916.76" departLane="best" departSpeed="max" from="-22584020#1" to="116249634#7"/>
    <trip id="motorcycle34" type="motorcycle_motorcycle" depart="944.54" departLane="best" from="27889294" to="-243673293#3"/>
    <trip id="motorcycle35" type="motorcycle_motorcycle" depart="972.32" departLane="best" from="22580060#5" to="-4056884#1"/>
    <trip id="motorcycle36" type="motorcycle_motorcycle" depart="1000.11" departLane="best" from="31148869#1" to="-27494390#5"/>
    <trip id="motorcycle37" type="motorcycle_motorcycle" depart="1027.89" departLane="best" from="-21621531#2" to="-334209277#7"/>
    <trip id="motorcycle38" type="motorcycle_motorcycle" depart="1055.67" departLane="best" from="334209278#0" to="-674239312#2"/>
    <trip id="motorcycle39" type="motorcycle_motorcycle" depart="1083.45" departLane="best" from="24303285#1" to="-22744742#7"/>
    <trip id="motorcycle40" type="motorcycle_motorcycle" depart="1111.23" departLane="best" from="119743424#1" to="-24303285#1"/>
    <trip id="motorcycle41" type="motorcycle_motorcycle" depart="1139.01" departLane="best" from="162513733#0" to="334209277#4"/>
    <trip id="motorcycle42" type="motorcycle_motorcycle" depart="1166.79" departLane="best" from="-334209277#1" to="-22584018#3"/>
    <trip id="motorcycle43" type="motorcycle_motorcycle" depart="1194.57" departLane="best" from="995509698#1" to="116249634#5"/>
    <trip id="motorcycle44" type="motorcycle_motorcycle" depart="1222.35" departLane="best" departSpeed="max" from="-165014737#1" to="119015824#1"/>
    <trip id="motorcycle46" type="motorcycle_motorcycle" depart="1277.91" departLane="best" from="249639572#1" to="-4056884#0"/>
    <trip id="motorcycle47" type="motorcycle_motorcycle" depart="1305.69" departLane="best" from="21621538" to="32854411"/>
    <trip id="motorcycle48" type="motorcycle_motorcycle" depart="1333.47" departLane="best" from="995509698#0" to="119019661#2"/>
    <trip id="motorcycle49" type="motorcycle_motorcycle" depart="1361.25" departLane="best" from="64303839" to="31148869#3"/>
    <trip id="motorcycle50" type="motorcycle_motorcycle" depart="1389.04" departLane="best" from="-116043937#5" to="-22744737#4"/>
    <trip id="motorcycle52" type="motorcycle_motorcycle" depart="1444.60" departLane="best" from="243572238#1" to="21621531#7"/>
    <trip id="motorcycle53" type="motorcycle_motorcycle" depart="1472.38" departLane="best" departSpeed="max" from="-183567020#1" to="20944624"/>
    <trip id="motorcycle54" type="motorcycle_motorcycle" depart="1500.16" departLane="best" from="-4057377" to="4057377"/>
    <trip id="motorcycle55" type="motorcycle_motorcycle" depart="1527.94" departLane="best" from="31148869#1" to="243572238#0"/>
    <trip id="motorcycle56" type="motorcycle_motorcycle" depart="1555.72" departLane="best" from="995509699" to="-218871551#1"/>
    <trip id="motorcycle57" type="motorcycle_motorcycle" depart="1583.50" departLane="best" from="334209277#7" to="31148871#2"/>
    <trip id="motorcycle58" type="motorcycle_motorcycle" depart="1611.28" departLane="best" from="27172796#2" to="-21621531#6"/>
    <trip id="motorcycle59" type="motorcycle_motorcycle" depart="1639.06" departLane="best" from="180733415" to="-21621531#6"/>
    <trip id="motorcycle60" type="motorcycle_motorcycle" depart="1666.84" departLane="best" from="23188731#0" to="-121406052#1"/>
    <trip id="motorcycle61" type="motorcycle_motorcycle" depart="1694.62" departLane="best" from="-119019661#0" to="-119743424#1"/>
    <trip id="motorcycle62" type="motorcycle_motorcycle" depart="1722.40" departLane="best" from="116043935#0" to="-29461206#0"/>
    <trip id="motorcycle63" type="motorcycle_motorcycle" depart="1750.18" departLane="best" from="-116075910" to="38632572#1"/>
    <trip id="motorcycle64" type="motorcycle_motorcycle" depart="1777.96" departLane="best" from="-31148869#3" to="29461221#2"/>
    <trip id="motorcycle65" type="motorcycle_motorcycle" depart="1805.75" departLane="best" from="-27494390#1" to="-119743424#1"/>
    <trip id="motorcycle66" type="motorcycle_motorcycle" depart="1833.53" departLane="best" from="-31148869#2" to="4057297#1"/>
    <trip id="motorcycle67" type="motorcycle_motorcycle" depart="1861.31" departLane="best" from="-164057494#1" to="116043937#2"/>
    <trip id="motorcycle68" type="motorcycle_motorcycle" depart="1889.09" departLane="best" from="674239312#5" to="249592608"/>
    <trip id="motorcycle71" type="motorcycle_motorcycle" depart="1972.43" departLane="best" from="-243572238#0" to="31148872#0"/>
    <trip id="motorcycle72" type="motorcycle_motorcycle" depart="2000.21" departLane="best" from="-334211924#3" to="22584012#0"/>
    <trip id="motorcycle73" type="motorcycle_motorcycle" depart="2027.99" departLane="best" from="117397447#1" to="-22744742#11"/>
    <trip id="motorcycle74" type="motorcycle_motorcycle" depart="2055.77" departLane="best" from="22580060#10" to="-27494390#3"/>
    <trip id="motorcycle75" type="motorcycle_motorcycle" depart="2083.55" departLane="best" from="838273014#1" to="21621540#4"/>
    <trip id="motorcycle76" type="motorcycle_motorcycle" depart="2111.33" departLane="best" departSpeed="max" from="-38997325" to="117399410#1"/>
    <trip id="motorcycle78" type="motorcycle_motorcycle" depart="2166.89" departLane="best" from="-29461221#2" to="183567020#1"/>
    <trip id="motorcycle79" type="motorcycle_motorcycle" depart="2194.68" departLane="best" from="22744737#1" to="-22584018#3"/>
    <trip id="motorcycle80" type="motorcycle_motorcycle" depart="2222.46" departLane="best" from="-1224634496#1" to="-21621531#0"/>
    <trip id="motorcycle81" type="motorcycle_motorcycle" depart="2250.24" departLane="best" departSpeed="max" from="-22584020#1" to="-334209278#2"/>
    <trip id="motorcycle82" type="motorcycle_motorcycle" depart="2278.02" departLane="best" from="-297648957#2" to="121406052#0"/>
    <trip id="motorcycle83" type="motorcycle_motorcycle" depart="2305.80" departLane="best" from="22744737#6" to="218871551#2"/>
    <trip id="motorcycle84" type="motorcycle_motorcycle" depart="2333.58" departLane="best" from="22580060#8" to="-196006775#1"/>
    <trip id="motorcycle85" type="motorcycle_motorcycle" depart="2361.36" departLane="best" from="-1237570341#2" to="168541190"/>
    <trip id="motorcycle86" type="motorcycle_motorcycle" depart="2389.14" departLane="best" from="125585292" to="27172796#1"/>
    <trip id="motorcycle87" type="motorcycle_motorcycle" depart="2416.92" departLane="best" departSpeed="max" from="27172795#0" to="-22087342#5"/>
    <trip id="motorcycle88" type="motorcycle_motorcycle" depart="2444.70" departLane="best" from="-168618754#0" to="4057297#4"/>
    <trip id="motorcycle89" type="motorcycle_motorcycle" depart="2472.48" departLane="best" from="-334211924#3" to="-79342544#0"/>
    <trip id="motorcycle90" type="motorcycle_motorcycle" depart="2500.26" departLane="best" from="-22584018#1" to="-22087342#1"/>
    <trip id="motorcycle91" type="motorcycle_motorcycle" depart="2528.04" departLane="best" from="674239312#5" to="-176628394#0"/>
    <trip id="motorcycle92" type="motorcycle_motorcycle" depart="2555.82" departLane="best" from="-334209277#3" to="-29461259"/>
    <trip id="motorcycle93" type="motorcycle_motorcycle" depart="2583.61" departLane="best" from="-297648957#3" to="-22744742#9"/>
    <trip id="motorcycle94" type="motorcycle_motorcycle" depart="2611.39" departLane="best" from="22087342#1" to="55029139"/>
    <trip id="motorcycle95" type="motorcycle_motorcycle" depart="2639.17" departLane="best" from="-334211924#2" to="-249639572#2"/>
    <trip id="motorcycle96" type="motorcycle_motorcycle" depart="2666.95" departLane="best" from="22744742#6" to="334227214#0"/>
    <trip id="motorcycle97" type="motorcycle_motorcycle" depart="2694.73" departLane="best" from="-4056884#1" to="31148869#3"/>
    <trip id="motorcycle98" type="motorcycle_motorcycle" depart="2722.51" departLane="best" from="117399410#5" to="-119019661#0"/>
    <trip id="motorcycle99" type="motorcycle_motorcycle" depart="2750.29" departLane="best" from="-995509699" to="29461221#5"/>
    <trip id="motorcycle100" type="motorcycle_motorcycle" depart="2778.07" departLane="best" from="48018919#5" to="-1237570341#2"/>
    <trip id="motorcycle101" type="motorcycle_motorcycle" depart="2805.85" departLane="best" from="-29461221#1" to="-21621540#7"/>
    <trip id="motorcycle102" type="motorcycle_motorcycle" depart="2833.63" departLane="best" from="674239312#1" to="22584015"/>
    <trip id="motorcycle103" type="motorcycle_motorcycle" depart="2861.41" departLane="best" from="-334209277#2" to="-119743424#1"/>
    <trip id="motorcycle104" type="motorcycle_motorcycle" depart="2889.19" departLane="best" from="-31148872#0" to="-674239312#3"/>
    <trip id="motorcycle105" type="motorcycle_motorcycle" depart="2916.97" departLane="best" from="-243572238#0" to="27172796#0"/>
    <trip id="motorcycle106" type="motorcycle_motorcycle" depart="2944.75" departLane="best" departSpeed="max" from="-427965003" to="-4056884#1"/>
    <trip id="motorcycle107" type="motorcycle_motorcycle" depart="2972.54" departLane="best" from="-4057377" to="838273014#1"/>
    <trip id="motorcycle108" type="motorcycle_motorcycle" depart="3000.32" departLane="best" from="-119019661#1" to="-22744737#3"/>
    <trip id="motorcycle109" type="motorcycle_motorcycle" depart="3028.10" departLane="best" from="21621531#3" to="-27172796#1"/>
    <trip id="motorcycle110" type="motorcycle_motorcycle" depart="3055.88" departLane="best" from="48018919#5" to="170626222#4"/>
    <trip id="motorcycle111" type="motorcycle_motorcycle" depart="3083.66" departLane="best" from="117398898" to="-24303285#0"/>
    <trip id="motorcycle112" type="motorcycle_motorcycle" depart="3111.44" departLane="best" from="-119743424#4" to="180733415"/>
    <trip id="motorcycle113" type="motorcycle_motorcycle" depart="3139.22" departLane="best" from="116043400#1" to="30024330#0"/>
    <trip id="motorcycle114" type="motorcycle_motorcycle" depart="3167.00" departLane="best" from="21621531#5" to="-48018919#0"/>
    <trip id="motorcycle116" type="motorcycle_motorcycle" depart="3222.56" departLane="best" from="-168618754#0" to="-22087342#2"/>
    <trip id="motorcycle118" type="motorcycle_motorcycle" depart="3278.12" departLane="best" from="31148872#2" to="-22744742#7"/>
    <trip id="motorcycle119" type="motorcycle_motorcycle" depart="3305.90" departLane="best" from="-168618754#0" to="196006775#5"/>
    <trip id="motorcycle120" type="motorcycle_motorcycle" depart="3333.68" departLane="best" from="-334209279#5" to="180733415"/>
    <trip id="motorcycle121" type="motorcycle_motorcycle" depart="3361.46" departLane="best" departSpeed="max" from="116075911#0" to="389582044"/>
    <trip id="motorcycle122" type="motorcycle_motorcycle" depart="3389.25" departLane="best" from="-22580060#12" to="-22744737#1"/>
    <trip id="motorcycle123" type="motorcycle_motorcycle" depart="3417.03" departLane="best" from="-22744740#1" to="334209277#7"/>
    <trip id="motorcycle124" type="motorcycle_motorcycle" depart="3444.81" departLane="best" from="-21621540#4" to="-27172796#3"/>
    <trip id="motorcycle125" type="motorcycle_motorcycle" depart="3472.59" departLane="best" from="27889294" to="-243572238#1"/>
    <trip id="motorcycle126" type="motorcycle_motorcycle" depart="3500.37" departLane="best" from="342103786#1" to="-674239312#2"/>
    <trip id="motorcycle127" type="motorcycle_motorcycle" depart="3528.15" departLane="best" from="995509698#1" to="995509698#0"/>
    <trip id="motorcycle128" type="motorcycle_motorcycle" depart="3555.93" departLane="best" from="-125585521" to="-22584015"/>
    <trip id="motorcycle129" type="motorcycle_motorcycle" depart="3583.71" departLane="best" from="-243572238#0" to="-389581875"/>
</routes>
