<edges>
    <edge from="1" id="1to2" to="2" />
    <edge from="2" id="out" to="3" />
    <edge from="4" id="3to4" to="5" />
</edges>