<?xml version="1.0" encoding="UTF-8"?>

<!-- generated on 2024-11-16 16:23:42.757831 by osmWebWizard.py v1_21_0+0000-d7b3b481c43
<configuration>
    <net-file value="C:\Users\salar\Sumo\2024-11-16-16-23-28\osm.net.xml.gz"/>
    <output-trip-file value="C:\Users\salar\Sumo\2024-11-16-16-23-28\osm.motorcycle.trips.xml"/>
    <route-file value="C:\Users\salar\Sumo\2024-11-16-16-23-28\osm.motorcycle.rou.xml"/>
    <prefix value="motorcycle"/>
    <trip-attributes value="departLane=&quot;best&quot;"/>
    <fringe-start-attributes value="departSpeed=&quot;max&quot;"/>
    <vehicle-class value="motorcycle"/>
    <fringe-factor value="2"/>
    <vclass value="motorcycle"/>
    <via-edge-types value="highway.motorway,highway.motorway_link,highway.trunk_link,highway.primary_link,highway.secondary_link,highway.tertiary_link"/>
    <max-distance value="1200.0"/>
    <remove-loops value="True"/>
    <validate value="True"/>
    <insertion-density value="4.0"/>
</configuration>
-->

<!-- generated on 2024-11-16 16:23:42 by Eclipse SUMO duarouter Version 1.21.0
<duarouterConfiguration xmlns:xsi="http://www.w3.org/2001/XMLSchema-instance" xsi:noNamespaceSchemaLocation="http://sumo.dlr.de/xsd/duarouterConfiguration.xsd">

    <input>
        <net-file value="C:\Users\salar\Sumo\2024-11-16-16-23-28\osm.net.xml.gz"/>
        <route-files value="C:\Users\salar\Sumo\2024-11-16-16-23-28\osm.motorcycle.trips.xml"/>
    </input>

    <output>
        <output-file value="C:\Users\salar\Sumo\2024-11-16-16-23-28\osm.motorcycle.trips.xml.tmp"/>
        <alternatives-output value="NUL"/>
        <write-trips value="true"/>
    </output>

    <processing>
        <remove-loops value="true"/>
    </processing>

    <time>
        <begin value="0.0"/>
        <end value="3600.0"/>
    </time>

    <report>
        <no-warnings value="true"/>
        <ignore-errors value="true"/>
        <no-step-log value="true"/>
    </report>

</duarouterConfiguration>
-->

<routes xmlns:xsi="http://www.w3.org/2001/XMLSchema-instance" xsi:noNamespaceSchemaLocation="http://sumo.dlr.de/xsd/routes_file.xsd">
    <vType id="motorcycle_motorcycle" vClass="motorcycle"/>
    <trip id="motorcycle0" type="motorcycle_motorcycle" depart="0.00" departLane="best" from="58692811#4" to="-204400387#3"/>
    <trip id="motorcycle1" type="motorcycle_motorcycle" depart="7.37" departLane="best" from="678832751#1" to="58733436#0"/>
    <trip id="motorcycle2" type="motorcycle_motorcycle" depart="14.75" departLane="best" from="58733302#5" to="58693473#1"/>
    <trip id="motorcycle3" type="motorcycle_motorcycle" depart="22.12" departLane="best" from="-10380660#1" to="217838956"/>
    <trip id="motorcycle4" type="motorcycle_motorcycle" depart="29.49" departLane="best" from="204400387#5" to="-58693723#5"/>
    <trip id="motorcycle5" type="motorcycle_motorcycle" depart="36.86" departLane="best" from="58692816#2" to="485354908#3"/>
    <trip id="motorcycle6" type="motorcycle_motorcycle" depart="44.24" departLane="best" from="-678826881#1" to="126392723"/>
    <trip id="motorcycle7" type="motorcycle_motorcycle" depart="51.61" departLane="best" from="-687681065#0" to="-58693257#3"/>
    <trip id="motorcycle8" type="motorcycle_motorcycle" depart="58.98" departLane="best" from="-527563032#4" to="-527596146#1"/>
    <trip id="motorcycle9" type="motorcycle_motorcycle" depart="66.35" departLane="best" from="678937275#4" to="536820658#1"/>
    <trip id="motorcycle10" type="motorcycle_motorcycle" depart="73.73" departLane="best" from="678826880#0" to="58700732#12"/>
    <trip id="motorcycle11" type="motorcycle_motorcycle" depart="81.10" departLane="best" from="484235173#1" to="757520990#11"/>
    <trip id="motorcycle12" type="motorcycle_motorcycle" depart="88.47" departLane="best" from="693883268#2" to="524926720#1"/>
    <trip id="motorcycle13" type="motorcycle_motorcycle" depart="95.84" departLane="best" from="58693720#1" to="-265039628#1"/>
    <trip id="motorcycle14" type="motorcycle_motorcycle" depart="103.22" departLane="best" from="-535119935#0" to="-678833723#0"/>
    <trip id="motorcycle15" type="motorcycle_motorcycle" depart="110.59" departLane="best" from="-693834164#6" to="-58695005#1"/>
    <trip id="motorcycle16" type="motorcycle_motorcycle" depart="117.96" departLane="best" from="-58692815" to="536824689#3"/>
    <trip id="motorcycle17" type="motorcycle_motorcycle" depart="125.33" departLane="best" from="-58693473#4" to="-695755386"/>
    <trip id="motorcycle18" type="motorcycle_motorcycle" depart="132.71" departLane="best" from="909201403#2" to="58692810#6"/>
    <trip id="motorcycle19" type="motorcycle_motorcycle" depart="140.08" departLane="best" from="-58745984#0" to="217838959#1"/>
    <trip id="motorcycle20" type="motorcycle_motorcycle" depart="147.45" departLane="best" from="-678939087#0" to="-678826880#1"/>
    <trip id="motorcycle21" type="motorcycle_motorcycle" depart="154.83" departLane="best" from="682033887#15" to="-678939087#0"/>
    <trip id="motorcycle22" type="motorcycle_motorcycle" depart="162.20" departLane="best" from="58692828#0" to="-731250132#2"/>
    <trip id="motorcycle23" type="motorcycle_motorcycle" depart="169.57" departLane="best" from="693275168#0" to="176333931#1"/>
    <trip id="motorcycle24" type="motorcycle_motorcycle" depart="176.94" departLane="best" from="526516406#4" to="678826027#9"/>
    <trip id="motorcycle26" type="motorcycle_motorcycle" depart="191.69" departLane="best" from="933757831#0" to="265038981#2"/>
    <trip id="motorcycle27" type="motorcycle_motorcycle" depart="199.06" departLane="best" from="678299825#1" to="10380660#4"/>
    <trip id="motorcycle28" type="motorcycle_motorcycle" depart="206.43" departLane="best" from="931617112#0" to="32887506#6"/>
    <trip id="motorcycle29" type="motorcycle_motorcycle" depart="213.81" departLane="best" from="58693476#1" to="484235170#4"/>
    <trip id="motorcycle31" type="motorcycle_motorcycle" depart="228.55" departLane="best" from="176333911#7" to="-730051774#0"/>
    <trip id="motorcycle32" type="motorcycle_motorcycle" depart="235.92" departLane="best" from="682033887#14" to="-678826028"/>
    <trip id="motorcycle33" type="motorcycle_motorcycle" depart="243.30" departLane="best" from="-262716546#1" to="-58693574#4"/>
    <trip id="motorcycle34" type="motorcycle_motorcycle" depart="250.67" departLane="best" from="691546161#1" to="682018065#1"/>
    <trip id="motorcycle35" type="motorcycle_motorcycle" depart="258.04" departLane="best" from="-678833735#3" to="58692810#5"/>
    <trip id="motorcycle36" type="motorcycle_motorcycle" depart="265.41" departLane="best" from="677772432#9" to="32887506#8"/>
    <trip id="motorcycle37" type="motorcycle_motorcycle" depart="272.79" departLane="best" from="-1015933219" to="-680998587#6"/>
    <trip id="motorcycle38" type="motorcycle_motorcycle" depart="280.16" departLane="best" from="-204400381#4" to="693839662#2"/>
    <trip id="motorcycle39" type="motorcycle_motorcycle" depart="287.53" departLane="best" from="-678937275#3" to="-477729319#1"/>
    <trip id="motorcycle40" type="motorcycle_motorcycle" depart="294.90" departLane="best" from="524926720#0" to="-59232626"/>
    <trip id="motorcycle41" type="motorcycle_motorcycle" depart="302.28" departLane="best" from="59277672" to="58692811#7"/>
    <trip id="motorcycle42" type="motorcycle_motorcycle" depart="309.65" departLane="best" from="217838955#1" to="487993881#0"/>
    <trip id="motorcycle43" type="motorcycle_motorcycle" depart="317.02" departLane="best" from="678826029#1" to="682018066#2"/>
    <trip id="motorcycle44" type="motorcycle_motorcycle" depart="324.40" departLane="best" from="126392745#2" to="26801860#1"/>
    <trip id="motorcycle45" type="motorcycle_motorcycle" depart="331.77" departLane="best" from="-58692810#1" to="-58733436#3"/>
    <trip id="motorcycle46" type="motorcycle_motorcycle" depart="339.14" departLane="best" from="-686989871#2" to="527596143"/>
    <trip id="motorcycle47" type="motorcycle_motorcycle" depart="346.51" departLane="best" from="-58745984#1" to="58733332#0"/>
    <trip id="motorcycle48" type="motorcycle_motorcycle" depart="353.89" departLane="best" from="679945378#1" to="-524948745#1"/>
    <trip id="motorcycle49" type="motorcycle_motorcycle" depart="361.26" departLane="best" from="-58733302#0" to="-58692812#4"/>
    <trip id="motorcycle50" type="motorcycle_motorcycle" depart="368.63" departLane="best" from="204400387#5" to="678298997#2"/>
    <trip id="motorcycle51" type="motorcycle_motorcycle" depart="376.00" departLane="best" from="-527596146#1" to="1212816576#2"/>
    <trip id="motorcycle52" type="motorcycle_motorcycle" depart="383.38" departLane="best" from="58700732#6" to="58693470#0"/>
    <trip id="motorcycle53" type="motorcycle_motorcycle" depart="390.75" departLane="best" from="-836783610" to="-527596146#4"/>
    <trip id="motorcycle54" type="motorcycle_motorcycle" depart="398.12" departLane="best" from="-797312215#0" to="687681065#0"/>
    <trip id="motorcycle55" type="motorcycle_motorcycle" depart="405.49" departLane="best" from="680998587#1" to="677779364"/>
    <trip id="motorcycle56" type="motorcycle_motorcycle" depart="412.87" departLane="best" from="-58693718#7" to="1318233272"/>
    <trip id="motorcycle57" type="motorcycle_motorcycle" depart="420.24" departLane="best" from="678937275#6" to="-58693475#0"/>
    <trip id="motorcycle58" type="motorcycle_motorcycle" depart="427.61" departLane="best" from="682033887#13" to="-58733302#0"/>
    <trip id="motorcycle59" type="motorcycle_motorcycle" depart="434.98" departLane="best" from="678826029#1" to="678298997#1"/>
    <trip id="motorcycle60" type="motorcycle_motorcycle" depart="442.36" departLane="best" from="176333911#9" to="10380660#8"/>
    <trip id="motorcycle61" type="motorcycle_motorcycle" depart="449.73" departLane="best" from="-526510185" to="58693725"/>
    <trip id="motorcycle62" type="motorcycle_motorcycle" depart="457.10" departLane="best" from="757520989#6" to="526516433#0"/>
    <trip id="motorcycle63" type="motorcycle_motorcycle" depart="464.48" departLane="best" from="485354908#2" to="58733438"/>
    <trip id="motorcycle64" type="motorcycle_motorcycle" depart="471.85" departLane="best" from="477729319#0" to="527563032#3"/>
    <trip id="motorcycle65" type="motorcycle_motorcycle" depart="479.22" departLane="best" from="-526516406#4" to="-58693718#14"/>
    <trip id="motorcycle66" type="motorcycle_motorcycle" depart="486.59" departLane="best" from="-59232251#1" to="-58692810#0"/>
    <trip id="motorcycle67" type="motorcycle_motorcycle" depart="493.97" departLane="best" from="1015918444#0" to="527563032#2"/>
    <trip id="motorcycle68" type="motorcycle_motorcycle" depart="501.34" departLane="best" from="32887506#0" to="693883268#2"/>
    <trip id="motorcycle69" type="motorcycle_motorcycle" depart="508.71" departLane="best" from="-58693726#1" to="58693724#2"/>
    <trip id="motorcycle70" type="motorcycle_motorcycle" depart="516.08" departLane="best" from="59232633#1" to="-737428082#0"/>
    <trip id="motorcycle71" type="motorcycle_motorcycle" depart="523.46" departLane="best" from="-678939087#1" to="58745984#1"/>
    <trip id="motorcycle72" type="motorcycle_motorcycle" depart="530.83" departLane="best" from="26160220#7" to="26160220#11"/>
    <trip id="motorcycle73" type="motorcycle_motorcycle" depart="538.20" departLane="best" from="-693834164#5" to="-58693470#0"/>
    <trip id="motorcycle74" type="motorcycle_motorcycle" depart="545.57" departLane="best" from="678833734#0" to="-58693718#3"/>
    <trip id="motorcycle75" type="motorcycle_motorcycle" depart="552.95" departLane="best" from="549354555#14" to="836783618#2"/>
    <trip id="motorcycle76" type="motorcycle_motorcycle" depart="560.32" departLane="best" from="-58692827#3" to="-126392724#1"/>
    <trip id="motorcycle77" type="motorcycle_motorcycle" depart="567.69" departLane="best" from="678832753#1" to="678833737#1"/>
    <trip id="motorcycle79" type="motorcycle_motorcycle" depart="582.44" departLane="best" from="-58692814#0" to="536824701"/>
    <trip id="motorcycle80" type="motorcycle_motorcycle" depart="589.81" departLane="best" from="-536820657#2" to="524948745#1"/>
    <trip id="motorcycle81" type="motorcycle_motorcycle" depart="597.18" departLane="best" from="678826883" to="536820660#0"/>
    <trip id="motorcycle82" type="motorcycle_motorcycle" depart="604.56" departLane="best" from="-58693726#3" to="-58693726#1"/>
    <trip id="motorcycle83" type="motorcycle_motorcycle" depart="611.93" departLane="best" from="58692810#3" to="-678826029#0"/>
    <trip id="motorcycle84" type="motorcycle_motorcycle" depart="619.30" departLane="best" from="26160220#5" to="689885354"/>
    <trip id="motorcycle85" type="motorcycle_motorcycle" depart="626.67" departLane="best" from="678937275#1" to="-527563032#4"/>
    <trip id="motorcycle86" type="motorcycle_motorcycle" depart="634.05" departLane="best" from="-10380660#5" to="-678832753#1"/>
    <trip id="motorcycle88" type="motorcycle_motorcycle" depart="648.79" departLane="best" from="58733431#0" to="524926720#0"/>
    <trip id="motorcycle89" type="motorcycle_motorcycle" depart="656.16" departLane="best" from="-526516406#0" to="682034230#2"/>
    <trip id="motorcycle90" type="motorcycle_motorcycle" depart="663.54" departLane="best" from="689389878#2" to="485354910"/>
    <trip id="motorcycle91" type="motorcycle_motorcycle" depart="670.91" departLane="best" from="-58693242#3" to="-58692811#6"/>
    <trip id="motorcycle93" type="motorcycle_motorcycle" depart="685.65" departLane="best" from="677779367" to="-535119935#3"/>
    <trip id="motorcycle94" type="motorcycle_motorcycle" depart="693.03" departLane="best" from="-836783610" to="549354555#21"/>
    <trip id="motorcycle95" type="motorcycle_motorcycle" depart="700.40" departLane="best" from="-58693257#1" to="-693839665#0"/>
    <trip id="motorcycle96" type="motorcycle_motorcycle" depart="707.77" departLane="best" from="-204400387#2" to="-58733302#0"/>
    <trip id="motorcycle97" type="motorcycle_motorcycle" depart="715.14" departLane="best" from="678826882#1" to="678826880#0"/>
    <trip id="motorcycle98" type="motorcycle_motorcycle" depart="722.52" departLane="best" from="678299821#0" to="-536820658#1"/>
    <trip id="motorcycle99" type="motorcycle_motorcycle" depart="729.89" departLane="best" from="-58733332#2" to="678832751#1"/>
    <trip id="motorcycle100" type="motorcycle_motorcycle" depart="737.26" departLane="best" from="204400380#1" to="678937275#1"/>
    <trip id="motorcycle101" type="motorcycle_motorcycle" depart="744.64" departLane="best" from="-204400383#3" to="58693720#3"/>
    <trip id="motorcycle102" type="motorcycle_motorcycle" depart="752.01" departLane="best" from="-681767506#1" to="680998587#2"/>
    <trip id="motorcycle103" type="motorcycle_motorcycle" depart="759.38" departLane="best" from="757520989#1" to="-678833723#2"/>
    <trip id="motorcycle104" type="motorcycle_motorcycle" depart="766.75" departLane="best" from="812677661#2" to="484235170#4"/>
    <trip id="motorcycle105" type="motorcycle_motorcycle" depart="774.13" departLane="best" from="757520989#8" to="-58693574#4"/>
    <trip id="motorcycle106" type="motorcycle_motorcycle" depart="781.50" departLane="best" from="-536820658#1" to="-1212816577#2"/>
    <trip id="motorcycle107" type="motorcycle_motorcycle" depart="788.87" departLane="best" from="58700732#5" to="-678939086#3"/>
    <trip id="motorcycle108" type="motorcycle_motorcycle" depart="796.24" departLane="best" from="536824690" to="265039626#0"/>
    <trip id="motorcycle109" type="motorcycle_motorcycle" depart="803.62" departLane="best" from="-678299825#1" to="58693720#2"/>
    <trip id="motorcycle110" type="motorcycle_motorcycle" depart="810.99" departLane="best" from="484235173#4" to="58693726#1"/>
    <trip id="motorcycle111" type="motorcycle_motorcycle" depart="818.36" departLane="best" from="58733431#1" to="58693257#1"/>
    <trip id="motorcycle112" type="motorcycle_motorcycle" depart="825.73" departLane="best" from="-693428592#1" to="-524948745#0"/>
    <trip id="motorcycle113" type="motorcycle_motorcycle" depart="833.11" departLane="best" from="58693253" to="-682018066#2"/>
    <trip id="motorcycle114" type="motorcycle_motorcycle" depart="840.48" departLane="best" from="678939086#2" to="678937275#2"/>
    <trip id="motorcycle115" type="motorcycle_motorcycle" depart="847.85" departLane="best" from="-678937276" to="836783618#1"/>
    <trip id="motorcycle116" type="motorcycle_motorcycle" depart="855.22" departLane="best" from="689389878#0" to="549354555#14"/>
    <trip id="motorcycle117" type="motorcycle_motorcycle" depart="862.60" departLane="best" from="-58692827#4" to="204400380#4"/>
    <trip id="motorcycle118" type="motorcycle_motorcycle" depart="869.97" departLane="best" from="126392751" to="-58733302#0"/>
    <trip id="motorcycle119" type="motorcycle_motorcycle" depart="877.34" departLane="best" from="-526516426#2" to="265931326"/>
    <trip id="motorcycle120" type="motorcycle_motorcycle" depart="884.71" departLane="best" from="58692810#1" to="-686989510#2"/>
    <trip id="motorcycle121" type="motorcycle_motorcycle" depart="892.09" departLane="best" from="58693473#0" to="-58733436#3"/>
    <trip id="motorcycle122" type="motorcycle_motorcycle" depart="899.46" departLane="best" from="-58693723#5" to="-204400387#2"/>
    <trip id="motorcycle123" type="motorcycle_motorcycle" depart="906.83" departLane="best" from="59277672" to="204400387#5"/>
    <trip id="motorcycle125" type="motorcycle_motorcycle" depart="921.58" departLane="best" from="-58693720#5" to="58693716#2"/>
    <trip id="motorcycle126" type="motorcycle_motorcycle" depart="928.95" departLane="best" from="26167049#0" to="176333931#0"/>
    <trip id="motorcycle127" type="motorcycle_motorcycle" depart="936.32" departLane="best" from="-58692828#1" to="-1212816577#2"/>
    <trip id="motorcycle128" type="motorcycle_motorcycle" depart="943.70" departLane="best" from="-59050500#1" to="596614567#1"/>
    <trip id="motorcycle130" type="motorcycle_motorcycle" depart="958.44" departLane="best" from="-58693573#1" to="737428082#1"/>
    <trip id="motorcycle131" type="motorcycle_motorcycle" depart="965.81" departLane="best" from="-270354714#0" to="-26801860#2"/>
    <trip id="motorcycle132" type="motorcycle_motorcycle" depart="973.19" departLane="best" from="677779364" to="678937275#2"/>
    <trip id="motorcycle133" type="motorcycle_motorcycle" depart="980.56" departLane="best" from="176333932" to="678826027#3"/>
    <trip id="motorcycle134" type="motorcycle_motorcycle" depart="987.93" departLane="best" from="58693257#2" to="691546160#5"/>
    <trip id="motorcycle135" type="motorcycle_motorcycle" depart="995.30" departLane="best" from="-535119935#4" to="724436771#1"/>
    <trip id="motorcycle136" type="motorcycle_motorcycle" depart="1002.68" departLane="best" from="-686989873" to="549354555#1"/>
    <trip id="motorcycle137" type="motorcycle_motorcycle" depart="1010.05" departLane="best" from="217838955#0" to="-678826027#3"/>
    <trip id="motorcycle138" type="motorcycle_motorcycle" depart="1017.42" departLane="best" from="-526516406#13" to="-678833729#1"/>
    <trip id="motorcycle139" type="motorcycle_motorcycle" depart="1024.79" departLane="best" from="-678826882#2" to="679945378#1"/>
    <trip id="motorcycle140" type="motorcycle_motorcycle" depart="1032.17" departLane="best" from="485354906#2" to="58692817#1"/>
    <trip id="motorcycle141" type="motorcycle_motorcycle" depart="1039.54" departLane="best" from="-58745986" to="58693574#3"/>
    <trip id="motorcycle142" type="motorcycle_motorcycle" depart="1046.91" departLane="best" from="-58693720#5" to="-485354910"/>
    <trip id="motorcycle143" type="motorcycle_motorcycle" depart="1054.29" departLane="best" from="-836783612" to="485354906#2"/>
    <trip id="motorcycle144" type="motorcycle_motorcycle" depart="1061.66" departLane="best" from="1015915287#0" to="-58694331#0"/>
    <trip id="motorcycle145" type="motorcycle_motorcycle" depart="1069.03" departLane="best" from="678939087#2" to="592438684#1"/>
    <trip id="motorcycle146" type="motorcycle_motorcycle" depart="1076.40" departLane="best" from="59232246#0" to="1212816578"/>
    <trip id="motorcycle147" type="motorcycle_motorcycle" depart="1083.78" departLane="best" from="690063797" to="59050500#0"/>
    <trip id="motorcycle148" type="motorcycle_motorcycle" depart="1091.15" departLane="best" from="1015918444#0" to="58733438"/>
    <trip id="motorcycle149" type="motorcycle_motorcycle" depart="1098.52" departLane="best" from="-486617211#1" to="536820658#0"/>
    <trip id="motorcycle150" type="motorcycle_motorcycle" depart="1105.89" departLane="best" from="-58733332#0" to="58733328"/>
    <trip id="motorcycle151" type="motorcycle_motorcycle" depart="1113.27" departLane="best" from="126392723" to="-217838955#1"/>
    <trip id="motorcycle152" type="motorcycle_motorcycle" depart="1120.64" departLane="best" from="-686989510#2" to="-58693473#5"/>
    <trip id="motorcycle153" type="motorcycle_motorcycle" depart="1128.01" departLane="best" from="-797312238" to="-58693474#1"/>
    <trip id="motorcycle154" type="motorcycle_motorcycle" depart="1135.38" departLane="best" from="204400383#0" to="58692811#6"/>
    <trip id="motorcycle155" type="motorcycle_motorcycle" depart="1142.76" departLane="best" from="549354555#7" to="-204400387#6"/>
    <trip id="motorcycle156" type="motorcycle_motorcycle" depart="1150.13" departLane="best" from="730051774#1" to="526516406#8"/>
    <trip id="motorcycle157" type="motorcycle_motorcycle" depart="1157.50" departLane="best" from="204400387#6" to="58692811#4"/>
    <trip id="motorcycle158" type="motorcycle_motorcycle" depart="1164.87" departLane="best" from="-26801860#2" to="-694360977"/>
    <trip id="motorcycle159" type="motorcycle_motorcycle" depart="1172.25" departLane="best" from="-58695061#2" to="-58695005#1"/>
    <trip id="motorcycle160" type="motorcycle_motorcycle" depart="1179.62" departLane="best" from="-204400381#4" to="484235173#2"/>
    <trip id="motorcycle161" type="motorcycle_motorcycle" depart="1186.99" departLane="best" from="952704778" to="689885354"/>
    <trip id="motorcycle162" type="motorcycle_motorcycle" depart="1194.37" departLane="best" from="58692817#0" to="677779357"/>
    <trip id="motorcycle163" type="motorcycle_motorcycle" depart="1201.74" departLane="best" from="58692817#2" to="59050500#1"/>
    <trip id="motorcycle164" type="motorcycle_motorcycle" depart="1209.11" departLane="best" from="724436771#1" to="-58693724#0"/>
    <trip id="motorcycle165" type="motorcycle_motorcycle" depart="1216.48" departLane="best" from="-204400381#5" to="-58693254"/>
    <trip id="motorcycle166" type="motorcycle_motorcycle" depart="1223.86" departLane="best" from="-58692811#2" to="58693256#1"/>
    <trip id="motorcycle167" type="motorcycle_motorcycle" depart="1231.23" departLane="best" from="58693718#2" to="59256808#1"/>
    <trip id="motorcycle168" type="motorcycle_motorcycle" depart="1238.60" departLane="best" from="-58745984#0" to="-536824699"/>
    <trip id="motorcycle169" type="motorcycle_motorcycle" depart="1245.97" departLane="best" from="-536820658#0" to="-204400387#4"/>
    <trip id="motorcycle170" type="motorcycle_motorcycle" depart="1253.35" departLane="best" from="-678939079" to="58693473#2"/>
    <trip id="motorcycle171" type="motorcycle_motorcycle" depart="1260.72" departLane="best" from="737428082#1" to="-737428082#1"/>
    <trip id="motorcycle172" type="motorcycle_motorcycle" depart="1268.09" departLane="best" from="58693725" to="-526516406#11"/>
    <trip id="motorcycle173" type="motorcycle_motorcycle" depart="1275.46" departLane="best" from="-535119935#1" to="-676414420"/>
    <trip id="motorcycle174" type="motorcycle_motorcycle" depart="1282.84" departLane="best" from="-678939077#0" to="536820657#0"/>
    <trip id="motorcycle175" type="motorcycle_motorcycle" depart="1290.21" departLane="best" from="-58692810#1" to="836762044"/>
    <trip id="motorcycle178" type="motorcycle_motorcycle" depart="1312.33" departLane="best" from="58692810#5" to="678833732#0"/>
    <trip id="motorcycle179" type="motorcycle_motorcycle" depart="1319.70" departLane="best" from="-58693720#6" to="1212816580#1"/>
    <trip id="motorcycle181" type="motorcycle_motorcycle" depart="1334.45" departLane="best" from="484235173#4" to="217838960#4"/>
    <trip id="motorcycle182" type="motorcycle_motorcycle" depart="1341.82" departLane="best" from="126392723" to="58700732#3"/>
    <trip id="motorcycle183" type="motorcycle_motorcycle" depart="1349.19" departLane="best" from="678826880#1" to="678939077#0"/>
    <trip id="motorcycle184" type="motorcycle_motorcycle" depart="1356.56" departLane="best" from="678833733#0" to="-526516426#5"/>
    <trip id="motorcycle185" type="motorcycle_motorcycle" depart="1363.94" departLane="best" from="682034230#0" to="176333931#0"/>
    <trip id="motorcycle186" type="motorcycle_motorcycle" depart="1371.31" departLane="best" from="204400381#2" to="536824698"/>
    <trip id="motorcycle187" type="motorcycle_motorcycle" depart="1378.68" departLane="best" from="693883268#3" to="-217838955#0"/>
    <trip id="motorcycle188" type="motorcycle_motorcycle" depart="1386.05" departLane="best" from="58693718#4" to="-678832753#1"/>
    <trip id="motorcycle189" type="motorcycle_motorcycle" depart="1393.43" departLane="best" from="-126392746#1" to="724436770#0"/>
    <trip id="motorcycle190" type="motorcycle_motorcycle" depart="1400.80" departLane="best" from="-526516426#3" to="58693726#2"/>
    <trip id="motorcycle191" type="motorcycle_motorcycle" depart="1408.17" departLane="best" from="26160220#5" to="59232621#1"/>
    <trip id="motorcycle192" type="motorcycle_motorcycle" depart="1415.54" departLane="best" from="-58693574#3" to="58692812#1"/>
    <trip id="motorcycle193" type="motorcycle_motorcycle" depart="1422.92" departLane="best" from="682033887#8" to="-678299825#0"/>
    <trip id="motorcycle194" type="motorcycle_motorcycle" depart="1430.29" departLane="best" from="-527563032#1" to="204400387#2"/>
    <trip id="motorcycle195" type="motorcycle_motorcycle" depart="1437.66" departLane="best" from="-678299822#0" to="-58692810#1"/>
    <trip id="motorcycle196" type="motorcycle_motorcycle" depart="1445.03" departLane="best" from="-58693720#1" to="58516659#3"/>
    <trip id="motorcycle197" type="motorcycle_motorcycle" depart="1452.41" departLane="best" from="484235173#0" to="59232633#0"/>
    <trip id="motorcycle198" type="motorcycle_motorcycle" depart="1459.78" departLane="best" from="26160127" to="58695005#0"/>
    <trip id="motorcycle199" type="motorcycle_motorcycle" depart="1467.15" departLane="best" from="-678833727#2" to="-535119935#0"/>
    <trip id="motorcycle200" type="motorcycle_motorcycle" depart="1474.52" departLane="best" from="-58693720#3" to="-58745983#0"/>
    <trip id="motorcycle201" type="motorcycle_motorcycle" depart="1481.90" departLane="best" from="-58693574#4" to="-176333931#0"/>
    <trip id="motorcycle202" type="motorcycle_motorcycle" depart="1489.27" departLane="best" from="-58693718#11" to="58692811#3"/>
    <trip id="motorcycle203" type="motorcycle_motorcycle" depart="1496.64" departLane="best" from="681767506#1" to="26160220#4"/>
    <trip id="motorcycle204" type="motorcycle_motorcycle" depart="1504.02" departLane="best" from="204400383#3" to="126392746#1"/>
    <trip id="motorcycle205" type="motorcycle_motorcycle" depart="1511.39" departLane="best" from="-58693718#1" to="-270354706"/>
    <trip id="motorcycle208" type="motorcycle_motorcycle" depart="1533.51" departLane="best" from="-270354714#1" to="-58693242#5"/>
    <trip id="motorcycle209" type="motorcycle_motorcycle" depart="1540.88" departLane="best" from="59256808#2" to="536820660#4"/>
    <trip id="motorcycle210" type="motorcycle_motorcycle" depart="1548.25" departLane="best" from="678299823#1" to="-58733438"/>
    <trip id="motorcycle211" type="motorcycle_motorcycle" depart="1555.62" departLane="best" from="549354555#5" to="536824690"/>
    <trip id="motorcycle212" type="motorcycle_motorcycle" depart="1563.00" departLane="best" from="-58694331#1" to="58695061#1"/>
    <trip id="motorcycle213" type="motorcycle_motorcycle" depart="1570.37" departLane="best" from="58693242#3" to="58693469"/>
    <trip id="motorcycle214" type="motorcycle_motorcycle" depart="1577.74" departLane="best" from="-10380660#5" to="176333911#1"/>
    <trip id="motorcycle215" type="motorcycle_motorcycle" depart="1585.11" departLane="best" from="-535119935#2" to="-678833733#2"/>
    <trip id="motorcycle216" type="motorcycle_motorcycle" depart="1592.49" departLane="best" from="-59050500#0" to="-58693719"/>
    <trip id="motorcycle217" type="motorcycle_motorcycle" depart="1599.86" departLane="best" from="58693718#8" to="176333911#4"/>
    <trip id="motorcycle218" type="motorcycle_motorcycle" depart="1607.23" departLane="best" from="-58693573#0" to="-693834164#1"/>
    <trip id="motorcycle219" type="motorcycle_motorcycle" depart="1614.60" departLane="best" from="678299821#1" to="549354555#6"/>
    <trip id="motorcycle220" type="motorcycle_motorcycle" depart="1621.98" departLane="best" from="58693242#4" to="693883268#1"/>
    <trip id="motorcycle221" type="motorcycle_motorcycle" depart="1629.35" departLane="best" from="58692815" to="691546160#1"/>
    <trip id="motorcycle222" type="motorcycle_motorcycle" depart="1636.72" departLane="best" from="-58693474#1" to="-678937275#6"/>
    <trip id="motorcycle223" type="motorcycle_motorcycle" depart="1644.10" departLane="best" from="58745985" to="526516418#4"/>
    <trip id="motorcycle224" type="motorcycle_motorcycle" depart="1651.47" departLane="best" from="58693574#0" to="58693718#1"/>
    <trip id="motorcycle225" type="motorcycle_motorcycle" depart="1658.84" departLane="best" from="26167018#0" to="526516406#5"/>
    <trip id="motorcycle226" type="motorcycle_motorcycle" depart="1666.21" departLane="best" from="-680998587#1" to="678299821#1"/>