<?xml version="1.0" encoding="UTF-8"?>

<!-- generated on 2024-11-16 16:23:45.078177 by osmWebWizard.py v1_21_0+0000-d7b3b481c43
<configuration>
    <net-file value="C:\Users\salar\Sumo\2024-11-16-16-23-28\osm.net.xml.gz"/>
    <output-trip-file value="C:\Users\salar\Sumo\2024-11-16-16-23-28\osm.passenger.trips.xml"/>
    <route-file value="C:\Users\salar\Sumo\2024-11-16-16-23-28\osm.passenger.rou.xml"/>
    <prefix value="veh"/>
    <trip-attributes value="departLane=&quot;best&quot;"/>
    <fringe-start-attributes value="departSpeed=&quot;max&quot;"/>
    <vehicle-class value="passenger"/>
    <lanes value="True"/>
    <fringe-factor value="5"/>
    <allow-fringe.min-length value="1000.0"/>
    <via-edge-types value="highway.motorway,highway.motorway_link,highway.trunk_link,highway.primary_link,highway.secondary_link,highway.tertiary_link"/>
    <min-distance value="300.0"/>
    <min-distance.fringe value="10.0"/>
    <remove-loops value="True"/>
    <validate value="True"/>
    <insertion-density value="12.0"/>
</configuration>
-->

<!-- generated on 2024-11-16 16:23:44 by Eclipse SUMO duarouter Version 1.21.0
<duarouterConfiguration xmlns:xsi="http://www.w3.org/2001/XMLSchema-instance" xsi:noNamespaceSchemaLocation="http://sumo.dlr.de/xsd/duarouterConfiguration.xsd">

    <input>
        <net-file value="C:\Users\salar\Sumo\2024-11-16-16-23-28\osm.net.xml.gz"/>
        <route-files value="C:\Users\salar\Sumo\2024-11-16-16-23-28\osm.passenger.trips.xml"/>
    </input>

    <output>
        <output-file value="C:\Users\salar\Sumo\2024-11-16-16-23-28\osm.passenger.trips.xml.tmp"/>
        <alternatives-output value="NUL"/>
        <write-trips value="true"/>
    </output>

    <processing>
        <remove-loops value="true"/>
    </processing>

    <time>
        <begin value="0.0"/>
        <end value="3600.0"/>
    </time>

    <report>
        <no-warnings value="true"/>
        <ignore-errors value="true"/>
        <no-step-log value="true"/>
    </report>

</duarouterConfiguration>
-->

<routes xmlns:xsi="http://www.w3.org/2001/XMLSchema-instance" xsi:noNamespaceSchemaLocation="http://sumo.dlr.de/xsd/routes_file.xsd">
    <vType id="veh_passenger" vClass="passenger"/>
    <trip id="veh0" type="veh_passenger" depart="0.00" departLane="best" from="-686989871#0" to="678830125#0"/>
    <trip id="veh1" type="veh_passenger" depart="2.47" departLane="best" from="58745986" to="58693256#0"/>
    <trip id="veh2" type="veh_passenger" depart="4.94" departLane="best" from="686989510#3" to="536820657#2"/>
    <trip id="veh3" type="veh_passenger" depart="7.40" departLane="best" from="26160220#3" to="-26167049#1"/>
    <trip id="veh4" type="veh_passenger" depart="9.87" departLane="best" from="-678826028" to="484235170#4"/>
    <trip id="veh5" type="veh_passenger" depart="12.34" departLane="best" from="-217838960#4" to="-59256808#1"/>
    <trip id="veh6" type="veh_passenger" depart="14.81" departLane="best" from="-58692827#2" to="526516422#2"/>
    <trip id="veh7" type="veh_passenger" depart="17.27" departLane="best" from="-678826031" to="-536824689#1"/>
    <trip id="veh8" type="veh_passenger" depart="19.74" departLane="best" from="-678826880#0" to="-126392724#1"/>
    <trip id="veh9" type="veh_passenger" depart="22.21" departLane="best" from="678826028" to="58693716#1"/>
    <trip id="veh10" type="veh_passenger" depart="24.68" departLane="best" from="1015918444#1" to="58693718#4"/>
    <trip id="veh11" type="veh_passenger" depart="27.14" departLane="best" from="757520989#1" to="1015918444#1"/>
    <trip id="veh12" type="veh_passenger" depart="29.61" departLane="best" from="536824689#3" to="-58692810#0"/>
    <trip id="veh13" type="veh_passenger" depart="32.08" departLane="best" from="679945378#0" to="549354555#17"/>
    <trip id="veh14" type="veh_passenger" depart="34.55" departLane="best" from="678826031" to="58700732#12"/>
    <trip id="veh15" type="veh_passenger" depart="37.02" departLane="best" from="526516422#1" to="-797312215#1"/>
    <trip id="veh16" type="veh_passenger" depart="39.48" departLane="best" from="176333911#12" to="526516426#6"/>
    <trip id="veh17" type="veh_passenger" depart="41.95" departLane="best" from="678833734#2" to="549354555#4"/>
    <trip id="veh18" type="veh_passenger" depart="44.42" departLane="best" departSpeed="max" from="682033887#0" to="-535119935#0"/>
    <trip id="veh19" type="veh_passenger" depart="46.89" departLane="best" from="58694331#1" to="-477729319#1"/>
    <trip id="veh20" type="veh_passenger" depart="49.35" departLane="best" from="-678832752" to="-693275168#3"/>
    <trip id="veh21" type="veh_passenger" depart="51.82" departLane="best" from="-535119935#0" to="-678833729#0"/>
    <trip id="veh22" type="veh_passenger" depart="54.29" departLane="best" from="58692811#0" to="-688501967#6"/>
    <trip id="veh23" type="veh_passenger" depart="56.76" departLane="best" from="58692811#4" to="1212816580#1"/>
    <trip id="veh26" type="veh_passenger" depart="64.16" departLane="best" from="58692817#1" to="549354555#2"/>
    <trip id="veh27" type="veh_passenger" depart="66.63" departLane="best" from="-58693726#3" to="58700732#12"/>
    <trip id="veh28" type="veh_passenger" depart="69.10" departLane="best" from="-58693723#3" to="1318233271#2"/>
    <trip id="veh31" type="veh_passenger" depart="76.50" departLane="best" from="678939086#1" to="677772432#2"/>
    <trip id="veh32" type="veh_passenger" depart="78.97" departLane="best" from="-678832753#1" to="262716546#1"/>
    <trip id="veh33" type="veh_passenger" depart="81.43" departLane="best" from="724436817" to="-682033572#0"/>
    <trip id="veh34" type="veh_passenger" depart="83.90" departLane="best" from="-678299825#1" to="730032049#2"/>
    <trip id="veh35" type="veh_passenger" depart="86.37" departLane="best" from="682033887#2" to="730051776"/>
    <trip id="veh36" type="veh_passenger" depart="88.84" departLane="best" from="58693242#3" to="176333911#3"/>
    <trip id="veh37" type="veh_passenger" depart="91.31" departLane="best" from="-693275168#2" to="262716545"/>
    <trip id="veh39" type="veh_passenger" depart="96.24" departLane="best" from="535119935#2" to="-680998587#8"/>
    <trip id="veh40" type="veh_passenger" depart="98.71" departLane="best" from="549354555#16" to="688501967#2"/>
    <trip id="veh41" type="veh_passenger" depart="101.18" departLane="best" from="204400380#4" to="-678826880#0"/>
    <trip id="veh43" type="veh_passenger" depart="106.11" departLane="best" from="-536820660#4" to="-477729319#3"/>
    <trip id="veh45" type="veh_passenger" depart="111.05" departLane="best" from="678299823#1" to="217838956"/>
    <trip id="veh46" type="veh_passenger" depart="113.52" departLane="best" from="-526516406#2" to="1318233271#2"/>
    <trip id="veh48" type="veh_passenger" depart="118.45" departLane="best" from="757520990#8" to="680998587#8"/>
    <trip id="veh49" type="veh_passenger" depart="120.92" departLane="best" from="-176333931#0" to="58693726#5"/>
    <trip id="veh50" type="veh_passenger" depart="123.39" departLane="best" from="58693716#3" to="526516418#2"/>
    <trip id="veh51" type="veh_passenger" depart="125.85" departLane="best" from="-681767506#0" to="58516657#0"/>
    <trip id="veh53" type="veh_passenger" depart="130.79" departLane="best" from="682033887#2" to="-681534128#0"/>
    <trip id="veh54" type="veh_passenger" depart="133.26" departLane="best" from="-485354906#1" to="-58733302#2"/>
    <trip id="veh56" type="veh_passenger" depart="138.19" departLane="best" departSpeed="max" from="570301569#0" to="-58693718#12"/>
    <trip id="veh57" type="veh_passenger" depart="140.66" departLane="best" from="677772432#12" to="526516418#5"/>
    <trip id="veh58" type="veh_passenger" depart="143.13" departLane="best" from="677779366" to="526516406#16"/>
    <trip id="veh59" type="veh_passenger" depart="145.60" departLane="best" from="-1015933219" to="-836783612"/>
    <trip id="veh60" type="veh_passenger" depart="148.06" departLane="best" from="204400387#3" to="693883268#1"/>
    <trip id="veh61" type="veh_passenger" depart="150.53" departLane="best" from="682033887#4" to="678833729#2"/>
    <trip id="veh63" type="veh_passenger" depart="155.47" departLane="best" from="682033887#3" to="737428082#1"/>
    <trip id="veh65" type="veh_passenger" depart="160.40" departLane="best" from="526516426#5" to="59232627"/>
    <trip id="veh66" type="veh_passenger" depart="162.87" departLane="best" from="677772432#14" to="-58693256#1"/>
    <trip id="veh67" type="veh_passenger" depart="165.34" departLane="best" from="32887506#1" to="526516426#1"/>
    <trip id="veh68" type="veh_passenger" depart="167.81" departLane="best" from="-680998587#7" to="26160220#1"/>
    <trip id="veh69" type="veh_passenger" depart="170.27" departLane="best" from="26160220#3" to="-678299832"/>
    <trip id="veh70" type="veh_passenger" depart="172.74" departLane="best" from="526516422#7" to="58700732#12"/>
    <trip id="veh71" type="veh_passenger" depart="175.21" departLane="best" from="59256808#2" to="-724436771#1"/>
    <trip id="veh73" type="veh_passenger" depart="180.14" departLane="best" departSpeed="max" from="26160253#0" to="485354908#3"/>
    <trip id="veh74" type="veh_passenger" depart="182.61" departLane="best" from="-58692827#4" to="-678832751#0"/>
    <trip id="veh75" type="veh_passenger" depart="185.08" departLane="best" from="-678833723#1" to="-678826880#1"/>
    <trip id="veh77" type="veh_passenger" depart="190.01" departLane="best" from="-678832753#1" to="689389878#2"/>
    <trip id="veh78" type="veh_passenger" depart="192.48" departLane="best" departSpeed="max" from="682033887#0" to="-526769106"/>
    <trip id="veh79" type="veh_passenger" depart="194.95" departLane="best" from="-678833732#3" to="58692828#0"/>
    <trip id="veh80" type="veh_passenger" depart="197.42" departLane="best" from="-678826027#0" to="-58693471#2"/>
    <trip id="veh82" type="veh_passenger" depart="202.35" departLane="best" from="270354718#1" to="677772432#8"/>
    <trip id="veh84" type="veh_passenger" depart="207.29" departLane="best" from="26160220#4" to="265038981#0"/>
    <trip id="veh85" type="veh_passenger" depart="209.76" departLane="best" from="909201403#0" to="-58692810#3"/>
    <trip id="veh86" type="veh_passenger" depart="212.22" departLane="best" from="-204400381#6" to="-1020575759"/>
    <trip id="veh87" type="veh_passenger" depart="214.69" departLane="best" departSpeed="max" from="682033887#0" to="678937275#2"/>
    <trip id="veh88" type="veh_passenger" depart="217.16" departLane="best" from="-58745984#0" to="26182885#0"/>
    <trip id="veh90" type="veh_passenger" depart="222.10" departLane="best" from="-678937275#0" to="-693834164#6"/>
    <trip id="veh91" type="veh_passenger" depart="224.56" departLane="best" from="26182885#0" to="-681534128#0"/>
    <trip id="veh92" type="veh_passenger" depart="227.03" departLane="best" from="527563032#2" to="-485354908#1"/>
    <trip id="veh93" type="veh_passenger" depart="229.50" departLane="best" from="952704778" to="678833733#3"/>
    <trip id="veh94" type="veh_passenger" depart="231.97" departLane="best" from="757520990#6" to="693839665#1"/>
    <trip id="veh95" type="veh_passenger" depart="234.43" departLane="best" from="679945379" to="-58693726#0"/>
    <trip id="veh96" type="veh_passenger" depart="236.90" departLane="best" from="477729319#4" to="-678826027#3"/>
    <trip id="veh98" type="veh_passenger" depart="241.84" departLane="best" from="176333911#12" to="909201403#2"/>
    <trip id="veh99" type="veh_passenger" depart="244.30" departLane="best" from="-680998587#8" to="677772432#8"/>
    <trip id="veh101" type="veh_passenger" depart="249.24" departLane="best" from="757520989#2" to="931617113#1"/>
    <trip id="veh102" type="veh_passenger" depart="251.71" departLane="best" from="527596146#5" to="58693726#3"/>
    <trip id="veh103" type="veh_passenger" depart="254.18" departLane="best" from="-58693718#14" to="-693834164#6"/>
    <trip id="veh104" type="veh_passenger" depart="256.64" departLane="best" from="757520990#4" to="535119935#2"/>
    <trip id="veh105" type="veh_passenger" depart="259.11" departLane="best" from="757520989#0" to="58733436#0"/>
    <trip id="veh106" type="veh_passenger" depart="261.58" departLane="best" from="524948745#1" to="536820657#0"/>
    <trip id="veh107" type="veh_passenger" depart="264.05" departLane="best" from="485354908#2" to="678939086#4"/>
    <trip id="veh108" type="veh_passenger" depart="266.51" departLane="best" from="-58693718#5" to="757520989#7"/>
    <trip id="veh109" type="veh_passenger" depart="268.98" departLane="best" from="-535119935#0" to="58733436#1"/>
    <trip id="veh110" type="veh_passenger" depart="271.45" departLane="best" from="549354555#22" to="58693249#1"/>
    <trip id="veh111" type="veh_passenger" depart="273.92" departLane="best" from="-678833729#0" to="-58692828#0"/>
    <trip id="veh112" type="veh_passenger" depart="276.38" departLane="best" from="686989509#3" to="-678911299"/>
    <trip id="veh113" type="veh_passenger" depart="278.85" departLane="best" from="549354555#22" to="549354555#4"/>
    <trip id="veh115" type="veh_passenger" depart="283.79" departLane="best" from="-676414420" to="58693726#1"/>
    <trip id="veh116" type="veh_passenger" depart="286.26" departLane="best" from="-678833732#4" to="526516418#1"/>
    <trip id="veh117" type="veh_passenger" depart="288.72" departLane="best" from="58693475#3" to="-693839665#1"/>
    <trip id="veh118" type="veh_passenger" depart="291.19" departLane="best" from="-730051773#1" to="-58745984#0"/>
    <trip id="veh119" type="veh_passenger" depart="293.66" departLane="best" from="-527563032#2" to="262716543"/>
    <trip id="veh121" type="veh_passenger" depart="298.59" departLane="best" from="-527563032#3" to="-678826027#2"/>
    <trip id="veh124" type="veh_passenger" depart="306.00" departLane="best" from="678833739" to="-58693718#2"/>
    <trip id="veh125" type="veh_passenger" depart="308.47" departLane="best" departSpeed="max" from="570301569#0" to="909201405#0"/>
    <trip id="veh126" type="veh_passenger" depart="310.93" departLane="best" from="58692829#2" to="-126392746#1"/>
    <trip id="veh127" type="veh_passenger" depart="313.40" departLane="best" from="678833723#1" to="-693839665#0"/>
    <trip id="veh128" type="veh_passenger" depart="315.87" departLane="best" from="58693471#1" to="722419631#3"/>
    <trip id="veh129" type="veh_passenger" depart="318.34" departLane="best" from="-58692811#7" to="526516433#1"/>
    <trip id="veh130" type="veh_passenger" depart="320.80" departLane="best" from="-686989509#3" to="549354555#17"/>
    <trip id="veh131" type="veh_passenger" depart="323.27" departLane="best" from="58700732#6" to="-677779364"/>
    <trip id="veh132" type="veh_passenger" depart="325.74" departLane="best" from="-58692811#3" to="681534128#1"/>
    <trip id="veh133" type="veh_passenger" depart="328.21" departLane="best" from="484235170#1" to="689389878#2"/>
    <trip id="veh134" type="veh_passenger" depart="330.67" departLane="best" from="-678948400" to="-536824698"/>
    <trip id="veh135" type="veh_passenger" depart="333.14" departLane="best" from="26160220#4" to="-688501967#2"/>
    <trip id="veh136" type="veh_passenger" depart="335.61" departLane="best" from="-1212816577#0" to="677772432#10"/>
    <trip id="veh137" type="veh_passenger" depart="338.08" departLane="best" from="58692811#7" to="-680998587#6"/>
    <trip id="veh138" type="veh_passenger" depart="340.55" departLane="best" from="59232623" to="526516426#5"/>
    <trip id="veh139" type="veh_passenger" depart="343.01" departLane="best" from="26160220#7" to="-126392749#0"/>
    <trip id="veh140" type="veh_passenger" depart="345.48" departLane="best" from="527563033#3" to="682033887#8"/>
    <trip id="veh141" type="veh_passenger" depart="347.95" departLane="best" from="689389878#1" to="526516422#7"/>
    <trip id="veh142" type="veh_passenger" depart="350.42" departLane="best" from="-678833741" to="535119935#8"/>
    <trip id="veh143" type="veh_passenger" depart="352.88" departLane="best" from="-58693574#1" to="-58693254"/>
    <trip id="veh145" type="veh_passenger" depart="357.82" departLane="best" from="678299828" to="680998587#8"/>
    <trip id="veh147" type="veh_passenger" depart="362.76" departLane="best" from="-678936838" to="-58692811#3"/>
    <trip id="veh148" type="veh_passenger" depart="365.22" departLane="best" from="677779367" to="26160220#7"/>
    <trip id="veh149" type="veh_passenger" depart="367.69" departLane="best" from="204400387#4" to="549354555#5"/>
    <trip id="veh150" type="veh_passenger" depart="370.16" departLane="best" from="-58693718#12" to="-693883268#3"/>
    <trip id="veh151" type="veh_passenger" depart="372.63" departLane="best" from="682033887#1" to="812677661#1"/>
    <trip id="veh152" type="veh_passenger" depart="375.09" departLane="best" from="678826882#1" to="26160220#9"/>
    <trip id="veh153" type="veh_passenger" depart="377.56" departLane="best" from="-217838959#1" to="58700732#8"/>
    <trip id="veh155" type="veh_passenger" depart="382.50" departLane="best" from="909201405#4" to="682018066#0"/>
    <trip id="veh156" type="veh_passenger" depart="384.96" departLane="best" from="678826882#0" to="-682018066#1"/>
    <trip id="veh157" type="veh_passenger" depart="387.43" departLane="best" from="682033887#14" to="680998587#2"/>
    <trip id="veh159" type="veh_passenger" depart="392.37" departLane="best" from="678299826" to="-678833723#0"/>
    <trip id="veh160" type="veh_passenger" depart="394.84" departLane="best" from="-217838958" to="-59232251#1"/>
    <trip id="veh161" type="veh_passenger" depart="397.30" departLane="best" from="-836783618#0" to="682018066#0"/>
    <trip id="veh163" type="veh_passenger" depart="402.24" departLane="best" from="58692812#2" to="176333911#6"/>
    <trip id="veh164" type="veh_passenger" depart="404.71" departLane="best" from="-836783610" to="526516418#2"/>
    <trip id="veh165" type="veh_passenger" depart="407.17" departLane="best" from="724436770#2" to="549354555#13"/>
    <trip id="veh166" type="veh_passenger" depart="409.64" departLane="best" from="757520990#7" to="-58733302#2"/>
    <trip id="veh167" type="veh_passenger" depart="412.11" departLane="best" from="757520990#0" to="-682018065#1"/>
    <trip id="veh168" type="veh_passenger" depart="414.58" departLane="best" from="-58733332#0" to="-730051774#0"/>
    <trip id="veh170" type="veh_passenger" depart="419.51" departLane="best" from="176333911#5" to="529602956#1"/>
    <trip id="veh171" type="veh_passenger" depart="421.98" departLane="best" from="-678939079" to="58693720#5"/>
    <trip id="veh172" type="veh_passenger" depart="424.45" departLane="best" from="-10380660#1" to="693839662#2"/>
    <trip id="veh173" type="veh_passenger" depart="426.92" departLane="best" from="59232624" to="58692829#0"/>
    <trip id="veh174" type="veh_passenger" depart="429.38" departLane="best" from="126392751" to="-526516433#1"/>
    <trip id="veh175" type="veh_passenger" depart="431.85" departLane="best" from="58693471#2" to="549354555#6"/>
    <trip id="veh176" type="veh_passenger" depart="434.32" departLane="best" from="-724436770#2" to="678937275#6"/>
    <trip id="veh177" type="veh_passenger" depart="436.79" departLane="best" from="58700732#8" to="-693851586"/>
    <trip id="veh179" type="veh_passenger" depart="441.72" departLane="best" from="-204400381#5" to="-693834164#4"/>
    <trip id="veh180" type="veh_passenger" depart="444.19" departLane="best" from="-58693249#1" to="204400387#6"/>
    <trip id="veh181" type="veh_passenger" depart="446.66" departLane="best" from="724436771#1" to="58693256#1"/>
    <trip id="veh182" type="veh_passenger" depart="449.13" departLane="best" from="689389878#0" to="549354555#24"/>
    <trip id="veh183" type="veh_passenger" depart="451.59" departLane="best" from="-693839662#0" to="526516422#8"/>
    <trip id="veh184" type="veh_passenger" depart="454.06" departLane="best" from="-1015933219" to="-691546162#0"/>
    <trip id="veh185" type="veh_passenger" depart="456.53" departLane="best" from="26160220#8" to="-535119935#3"/>
    <trip id="veh187" type="veh_passenger" depart="461.46" departLane="best" from="26167050" to="-678826027#3"/>
    <trip id="veh189" type="veh_passenger" depart="466.40" departLane="best" from="678299828" to="-58693726#3"/>
    <trip id="veh190" type="veh_passenger" depart="468.87" departLane="best" from="-535119935#8" to="485354906#2"/>
    <trip id="veh191" type="veh_passenger" depart="471.34" departLane="best" from="58692811#1" to="1015918443#1"/>
    <trip id="veh192" type="veh_passenger" depart="473.80" departLane="best" from="678833726#0" to="58745983#0"/>
    <trip id="veh193" type="veh_passenger" depart="476.27" departLane="best" from="58693476#1" to="678832751#0"/>
    <trip id="veh194" type="veh_passenger" depart="478.74" departLane="best" from="-678833735#3" to="265039629"/>
    <trip id="veh195" type="veh_passenger" depart="481.21" departLane="best" from="680998587#2" to="527563032#4"/>
    <trip id="veh197" type="veh_passenger" depart="486.14" departLane="best" from="-59232251#0" to="58693574#2"/>
    <trip id="veh198" type="veh_passenger" depart="488.61" departLane="best" departSpeed="max" from="484235172#0" to="678833737#1"/>
    <trip id="veh199" type="veh_passenger" depart="491.08" departLane="best" from="58693242#4" to="126392723"/>
    <trip id="veh200" type="veh_passenger" depart="493.54" departLane="best" from="624908823" to="58700732#5"/>
    <trip id="veh201" type="veh_passenger" depart="496.01" departLane="best" from="-58695005#2" to="757520989#2"/>
    <trip id="veh202" type="veh_passenger" depart="498.48" departLane="best" from="524948748#0" to="-485354908#0"/>
    <trip id="veh203" type="veh_passenger" depart="500.95" departLane="best" from="678936648" to="678937276"/>
    <trip id="veh205" type="veh_passenger" depart="505.88" departLane="best" from="58693473#6" to="909201405#1"/>
    <trip id="veh206" type="veh_passenger" depart="508.35" departLane="best" from="549354555#22" to="740054158#0"/>
    <trip id="veh207" type="veh_passenger" depart="510.82" departLane="best" from="686989510#1" to="549354555#22"/>
    <trip id="veh208" type="veh_passenger" depart="513.29" departLane="best" from="58700732#8" to="484235170#4"/>
    <trip id="veh209" type="veh_passenger" depart="515.75" departLane="best" from="688501967#2" to="-58733302#8"/>
    <trip id="veh210" type="veh_passenger" depart="518.22" departLane="best" from="32887506#1" to="-679945379"/>
    <trip id="veh212" type="veh_passenger" depart="523.16" departLane="best" from="677772432#14" to="486617211#2"/>
    <trip id="veh213" type="veh_passenger" depart="525.62" departLane="best" from="58516659#2" to="687681065#1"/>
    <trip id="veh214" type="veh_passenger" depart="528.09" departLane="best" from="-686989509#0" to="756471449#1"/>
    <trip id="veh215" type="veh_passenger" depart="530.56" departLane="best" from="526516422#8" to="-58693475#0"/>
    <trip id="veh216" type="veh_passenger" depart="533.03" departLane="best" from="-678833726#0" to="-58693572#2"/>
    <trip id="veh217" type="veh_passenger" depart="535.50" departLane="best" from="58695005#2" to="-526516406#7"/>
    <trip id="veh218" type="veh_passenger" depart="537.96" departLane="best" from="204400387#6" to="526516422#1"/>
    <trip id="veh219" type="veh_passenger" depart="540.43" departLane="best" from="26160127" to="-678299823#0"/>
    <trip id="veh220" type="veh_passenger" depart="542.90" departLane="best" from="682033887#4" to="689389878#1"/>
    <trip id="veh221" type="veh_passenger" depart="545.37" departLane="best" from="549354555#16" to="58693574#0"/>
    <trip id="veh222" type="veh_passenger" depart="547.83" departLane="best" from="682018066#2" to="59256808#3"/>
    <trip id="veh223" type="veh_passenger" depart="550.30" departLane="best" from="176333911#2" to="-126392724#0"/>
    <trip id="veh224" type="veh_passenger" depart="552.77" departLane="best" from="10386813#0" to="58745986"/>
    <trip id="veh225" type="veh_passenger" depart="555.24" departLane="best" from="681534128#1" to="740097435#2"/>
    <trip id="veh226" type="veh_passenger" depart="557.71" departLane="best" from="682033887#4" to="58733436#0"/>
    <trip id="veh227" type="veh_passenger" depart="560.17" departLane="best" from="-526516433#1" to="549354555#16"/>
    <trip id="veh228" type="veh_passenger" depart="562.64" departLane="best" departSpeed="max" from="26160253#0" to="-26167049#0"/>
    <trip id="veh229" type="veh_passenger" depart="565.11" departLane="best" from="-204400383#2" to="-58693724#3"/>
    <trip id="veh231" type="veh_passenger" depart="570.04" departLane="best" from="176333955#1" to="529602955"/>
    <trip id="veh232" type="veh_passenger" depart="572.51" departLane="best" from="-217838961#0" to="58516659#1"/>
    <trip id="veh233" type="veh_passenger" depart="574.98" departLane="best" from="58693473#3" to="527506011#1"/>
    <trip id="veh234" type="veh_passenger" depart="577.45" departLane="best" from="-485354906#2" to="1318233271#2"/>
    <trip id="veh235" type="veh_passenger" depart="579.91" departLane="best" from="-678299825#1" to="-909201404"/>
    <trip id="veh236" type="veh_passenger" depart="582.38" departLane="best" from="677772432#10" to="1318233271#2"/>
    <trip id="veh237" type="veh_passenger" depart="584.85" departLane="best" from="-652433438#0" to="678833729#2"/>
    <trip id="veh238" type="veh_passenger" depart="587.32" departLane="best" from="-678937275#6" to="-535119935#3"/>
    <trip id="veh239" type="veh_passenger" depart="589.79" departLane="best" from="204400387#3" to="526516418#5"/>
    <trip id="veh240" type="veh_passenger" depart="592.25" departLane="best" from="952704778" to="10386813#1"/>
    <trip id="veh241" type="veh_passenger" depart="594.72" departLane="best" from="58692827#2" to="677772432#6"/>
    <trip id="veh242" type="veh_passenger" depart="597.19" departLane="best" from="58692828#0" to="59050500#1"/>
    <trip id="veh243" type="veh_passenger" depart="599.66" departLane="best" from="682033887#2" to="-59256808#3"/>
    <trip id="veh244" type="veh_passenger" depart="602.12" departLane="best" from="204400387#5" to="-58693718#11"/>
    <trip id="veh245" type="veh_passenger" depart="604.59" departLane="best" from="-58693242#5" to="-58692828#1"/>
    <trip id="veh246" type="veh_passenger" depart="607.06" departLane="best" from="-535119935#8" to="-678826031"/>
    <trip id="veh247" type="veh_passenger" depart="609.53" departLane="best" from="58693726#1" to="596614567#1"/>
    <trip id="veh248" type="veh_passenger" depart="612.00" departLane="best" from="-58693726#0" to="549354555#19"/>
    <trip id="veh249" type="veh_passenger" depart="614.46" departLane="best" from="-58692811#8" to="-217838960#1"/>
    <trip id="veh251" type="veh_passenger" depart="619.40" departLane="best" from="757520989#2" to="176333911#4"/>
    <trip id="veh252" type="veh_passenger" depart="621.87" departLane="best" from="58700732#3" to="-527596143"/>
    <trip id="veh254" type="veh_passenger" depart="626.80" departLane="best" from="58692811#1" to="677772432#12"/>
    <trip id="veh255" type="veh_passenger" depart="629.27" departLane="best" from="680998587#4" to="549354555#14"/>
    <trip id="veh256" type="veh_passenger" depart="631.74" departLane="best" from="-58692828#0" to="836783620"/>
    <trip id="veh258" type="veh_passenger" depart="636.67" departLane="best" from="26160220#7" to="-126392751"/>
    <trip id="veh259" type="veh_passenger" depart="639.14" departLane="best" from="486617211#0" to="10380660#8"/>
    <trip id="veh260" type="veh_passenger" depart="641.61" departLane="best" from="680998587#1" to="678830125#2"/>
    <trip id="veh261" type="veh_passenger" depart="644.08" departLane="best" from="-58692811#4" to="526516422#1"/>
    <trip id="veh262" type="veh_passenger" depart="646.54" departLane="best" from="58692811#4" to="678833727#0"/>
    <trip id="veh263" type="veh_passenger" depart="649.01" departLane="best" from="-58695061#2" to="26160220#3"/>
    <trip id="veh264" type="veh_passenger" depart="651.48" departLane="best" from="58733438" to="757520990#11"/>
    <trip id="veh265" type="veh_passenger" depart="653.95" departLane="best" from="26160127" to="678826026#1"/>
    <trip id="veh266" type="veh_passenger" depart="656.41" departLane="best" from="526516422#2" to="270354714#2"/>
    <trip id="veh267" type="veh_passenger" depart="658.88" departLane="best" departSpeed="max" from="26160253#0" to="58700732#2"/>
    <trip id="veh268" type="veh_passenger" depart="661.35" departLane="best" from="-682018065#1" to="-678939086#2"/>
    <trip id="veh269" type="veh_passenger" depart="663.82" departLane="best" from="678833735#1" to="-536820657#2"/>
    <trip id="veh270" type="veh_passenger" depart="666.29" departLane="best" from="26160220#8" to="-678833737#1"/>
    <trip id="veh271" type="veh_passenger" depart="668.75" departLane="best" from="265931326" to="549354555#20"/>
    <trip id="veh272" type="veh_passenger" depart="671.22" departLane="best" from="176333911#12" to="-26167018#0"/>
    <trip id="veh273" type="veh_passenger" depart="673.69" departLane="best" from="740097435#2" to="26160220#11"/>
    <trip id="veh274" type="veh_passenger" depart="676.16" departLane="best" from="58693726#3" to="-688501967#1"/>
    <trip id="veh275" type="veh_passenger" depart="678.62" departLane="best" from="126392751" to="737437197#0"/>
    <trip id="veh276" type="veh_passenger" depart="681.09" departLane="best" from="-535119935#9" to="-58693726#5"/>
    <trip id="veh277" type="veh_passenger" depart="683.56" departLane="best" from="484235170#1" to="-59232623"/>
    <trip id="veh278" type="veh_passenger" depart="686.03" departLane="best" from="58693720#2" to="-58692810#0"/>
    <trip id="veh279" type="veh_passenger" depart="688.49" departLane="best" from="484235170#3" to="678298997#3"/>