<?xml version="1.0" encoding="UTF-8"?>

<!-- generated on 2024-11-16 16:23:48.527656 by osmWebWizard.py v1_21_0+0000-d7b3b481c43
<configuration>
    <net-file value="C:\Users\salar\Sumo\2024-11-16-16-23-28\osm.net.xml.gz"/>
    <output-trip-file value="C:\Users\salar\Sumo\2024-11-16-16-23-28\osm.truck.trips.xml"/>
    <route-file value="C:\Users\salar\Sumo\2024-11-16-16-23-28\osm.truck.rou.xml"/>
    <prefix value="truck"/>
    <trip-attributes value="departLane=&quot;best&quot;"/>
    <fringe-start-attributes value="departSpeed=&quot;max&quot;"/>
    <vehicle-class value="truck"/>
    <fringe-factor value="5"/>
    <vclass value="truck"/>
    <via-edge-types value="highway.motorway,highway.motorway_link,highway.trunk_link,highway.primary_link,highway.secondary_link,highway.tertiary_link"/>
    <min-distance value="600.0"/>
    <min-distance.fringe value="10.0"/>
    <remove-loops value="True"/>
    <validate value="True"/>
    <insertion-density value="8.0"/>
</configuration>
-->

<!-- generated on 2024-11-16 16:23:48 by Eclipse SUMO duarouter Version 1.21.0
<duarouterConfiguration xmlns:xsi="http://www.w3.org/2001/XMLSchema-instance" xsi:noNamespaceSchemaLocation="http://sumo.dlr.de/xsd/duarouterConfiguration.xsd">

    <input>
        <net-file value="C:\Users\salar\Sumo\2024-11-16-16-23-28\osm.net.xml.gz"/>
        <route-files value="C:\Users\salar\Sumo\2024-11-16-16-23-28\osm.truck.trips.xml"/>
    </input>

    <output>
        <output-file value="C:\Users\salar\Sumo\2024-11-16-16-23-28\osm.truck.trips.xml.tmp"/>
        <alternatives-output value="NUL"/>
        <write-trips value="true"/>
    </output>

    <processing>
        <remove-loops value="true"/>
    </processing>

    <time>
        <begin value="0.0"/>
        <end value="3600.0"/>
    </time>

    <report>
        <no-warnings value="true"/>
        <ignore-errors value="true"/>
        <no-step-log value="true"/>
    </report>

</duarouterConfiguration>
-->

<routes xmlns:xsi="http://www.w3.org/2001/XMLSchema-instance" xsi:noNamespaceSchemaLocation="http://sumo.dlr.de/xsd/routes_file.xsd">
    <vType id="truck_truck" vClass="truck"/>
    <trip id="truck0" type="truck_truck" depart="0.00" departLane="best" from="-678833723#0" to="58745983#0"/>
    <trip id="truck1" type="truck_truck" depart="3.70" departLane="best" from="58733302#7" to="58693257#2"/>
    <trip id="truck2" type="truck_truck" depart="7.40" departLane="best" from="-686989873" to="-526516433#0"/>
    <trip id="truck3" type="truck_truck" depart="11.10" departLane="best" from="10386813#0" to="-217838957"/>
    <trip id="truck4" type="truck_truck" depart="14.81" departLane="best" from="-58733332#0" to="265038973#2"/>
    <trip id="truck5" type="truck_truck" depart="18.51" departLane="best" from="58692816#1" to="485354908#1"/>
    <trip id="truck6" type="truck_truck" depart="22.21" departLane="best" from="-58733332#2" to="527596143"/>
    <trip id="truck7" type="truck_truck" depart="25.91" departLane="best" from="678826882#0" to="126392723"/>
    <trip id="truck9" type="truck_truck" depart="33.31" departLane="best" from="-688501967#4" to="-58693470#0"/>
    <trip id="truck10" type="truck_truck" depart="37.02" departLane="best" from="731250132#2" to="-688501967#2"/>
    <trip id="truck11" type="truck_truck" depart="40.72" departLane="best" from="678937275#4" to="-535119935#8"/>
    <trip id="truck12" type="truck_truck" depart="44.42" departLane="best" from="485354906#0" to="757520990#11"/>
    <trip id="truck14" type="truck_truck" depart="51.82" departLane="best" from="678833732#4" to="549354555#12"/>
    <trip id="truck15" type="truck_truck" depart="55.52" departLane="best" from="680998587#2" to="526516426#3"/>
    <trip id="truck16" type="truck_truck" depart="59.23" departLane="best" from="58693720#0" to="-265039629"/>
    <trip id="truck17" type="truck_truck" depart="62.93" departLane="best" from="-58745986" to="-678833734#2"/>
    <trip id="truck18" type="truck_truck" depart="66.63" departLane="best" from="-535119935#1" to="-678833727#3"/>
    <trip id="truck20" type="truck_truck" depart="74.03" departLane="best" from="-693839665#1" to="-58704860"/>
    <trip id="truck21" type="truck_truck" depart="77.73" departLane="best" from="-678826882#1" to="-694360977"/>
    <trip id="truck22" type="truck_truck" depart="81.43" departLane="best" from="-58693571#2" to="58694347"/>
    <trip id="truck24" type="truck_truck" depart="88.84" departLane="best" from="909201403#0" to="58516659#1"/>
    <trip id="truck25" type="truck_truck" depart="92.54" departLane="best" from="-526516406#11" to="-58693473#5"/>
    <trip id="truck26" type="truck_truck" depart="96.24" departLane="best" from="678911299" to="58700732#5"/>
    <trip id="truck27" type="truck_truck" depart="99.94" departLane="best" from="-59050500#1" to="217838959#1"/>
    <trip id="truck28" type="truck_truck" depart="103.64" departLane="best" from="-679945378#0" to="678830125#1"/>
    <trip id="truck30" type="truck_truck" depart="111.05" departLane="best" from="682033887#13" to="-679945379"/>
    <trip id="truck31" type="truck_truck" depart="114.75" departLane="best" from="-58692827#4" to="-797312215#0"/>
    <trip id="truck32" type="truck_truck" depart="118.45" departLane="best" from="682033887#10" to="176333954#1"/>
    <trip id="truck33" type="truck_truck" depart="122.15" departLane="best" from="678826880#1" to="-678299822#0"/>
    <trip id="truck34" type="truck_truck" depart="125.85" departLane="best" from="-526516406#5" to="-678826880#1"/>
    <trip id="truck35" type="truck_truck" depart="129.56" departLane="best" from="527563033#3" to="688501967#4"/>
    <trip id="truck36" type="truck_truck" depart="133.26" departLane="best" from="678299825#1" to="10386813#1"/>
    <trip id="truck37" type="truck_truck" depart="136.96" departLane="best" from="931617112#0" to="32887506#7"/>
    <trip id="truck38" type="truck_truck" depart="140.66" departLane="best" from="757520990#0" to="678948400"/>
    <trip id="truck39" type="truck_truck" depart="144.36" departLane="best" from="126392748" to="-58693724#1"/>
    <trip id="truck40" type="truck_truck" depart="148.06" departLane="best" from="58693476#1" to="484235170#4"/>
    <trip id="truck41" type="truck_truck" depart="151.76" departLane="best" from="678826882#0" to="-58516659#3"/>
    <trip id="truck42" type="truck_truck" depart="155.47" departLane="best" from="536824689#1" to="126392724#0"/>
    <trip id="truck43" type="truck_truck" depart="159.17" departLane="best" from="682033887#12" to="-678826881#0"/>
    <trip id="truck45" type="truck_truck" depart="166.57" departLane="best" from="-678833741" to="58516659#0"/>
    <trip id="truck46" type="truck_truck" depart="170.27" departLane="best" from="59256808#2" to="484235173#0"/>
    <trip id="truck47" type="truck_truck" depart="173.97" departLane="best" from="677772432#9" to="-477729319#0"/>
    <trip id="truck48" type="truck_truck" depart="177.68" departLane="best" from="-204400381#4" to="693839662#0"/>
    <trip id="truck49" type="truck_truck" depart="181.38" departLane="best" from="682033887#2" to="678833732#1"/>
    <trip id="truck50" type="truck_truck" depart="185.08" departLane="best" from="-678939079" to="477729319#3"/>
    <trip id="truck51" type="truck_truck" depart="188.78" departLane="best" from="682033887#15" to="722419631#1"/>
    <trip id="truck52" type="truck_truck" depart="192.48" departLane="best" from="-526516426#4" to="26160220#0"/>
    <trip id="truck53" type="truck_truck" depart="196.18" departLane="best" from="-524926720#1" to="59232251#1"/>
    <trip id="truck54" type="truck_truck" depart="199.89" departLane="best" from="624908823" to="-58692812#1"/>
    <trip id="truck55" type="truck_truck" depart="203.59" departLane="best" from="1118730696#0" to="-58733302#1"/>
    <trip id="truck56" type="truck_truck" depart="207.29" departLane="best" from="485354908#1" to="58695005#1"/>
    <trip id="truck57" type="truck_truck" depart="210.99" departLane="best" from="909201406#1" to="-58692811#7"/>
    <trip id="truck58" type="truck_truck" depart="214.69" departLane="best" from="1318233269#1" to="26801860#1"/>
    <trip id="truck59" type="truck_truck" depart="218.39" departLane="best" from="-58692810#3" to="-58745984#0"/>
    <trip id="truck60" type="truck_truck" depart="222.10" departLane="best" from="688501967#1" to="527596140#0"/>
    <trip id="truck61" type="truck_truck" depart="225.80" departLane="best" from="-59050500#3" to="-58733431#4"/>
    <trip id="truck62" type="truck_truck" depart="229.50" departLane="best" from="-59050500#1" to="689389878#2"/>
    <trip id="truck63" type="truck_truck" depart="233.20" departLane="best" from="679945379" to="-524948748#1"/>
    <trip id="truck64" type="truck_truck" depart="236.90" departLane="best" from="-592438684#1" to="58693242#2"/>
    <trip id="truck65" type="truck_truck" depart="240.60" departLane="best" from="-58733302#2" to="-58692814#0"/>
    <trip id="truck66" type="truck_truck" depart="244.30" departLane="best" from="693883268#3" to="526516418#5"/>
    <trip id="truck67" type="truck_truck" depart="248.01" departLane="best" from="217838959#0" to="677779364"/>
    <trip id="truck68" type="truck_truck" depart="251.71" departLane="best" from="678826880#1" to="-58693720#2"/>
    <trip id="truck69" type="truck_truck" depart="255.41" departLane="best" from="-527596146#2" to="1212816580#1"/>
    <trip id="truck70" type="truck_truck" depart="259.11" departLane="best" from="1118730696#0" to="204400381#4"/>
    <trip id="truck71" type="truck_truck" depart="262.81" departLane="best" from="-836783610" to="-527781579"/>
    <trip id="truck72" type="truck_truck" depart="266.51" departLane="best" from="680998587#2" to="678299823#1"/>
    <trip id="truck73" type="truck_truck" depart="270.22" departLane="best" from="678299823#1" to="693831770#1"/>
    <trip id="truck74" type="truck_truck" depart="273.92" departLane="best" from="524926720#1" to="-270354706"/>
    <trip id="truck75" type="truck_truck" depart="277.62" departLane="best" from="952704777" to="678833733#3"/>
    <trip id="truck76" type="truck_truck" depart="281.32" departLane="best" from="757520989#6" to="-693834164#5"/>
    <trip id="truck77" type="truck_truck" depart="285.02" departLane="best" from="678937276" to="-58693476#0"/>
    <trip id="truck78" type="truck_truck" depart="288.72" departLane="best" from="682033887#7" to="-58733302#4"/>
    <trip id="truck79" type="truck_truck" depart="292.43" departLane="best" from="-836783610" to="-477729319#4"/>
    <trip id="truck80" type="truck_truck" depart="296.13" departLane="best" from="204400380#1" to="1118730695"/>
    <trip id="truck81" type="truck_truck" depart="299.83" departLane="best" from="731250132#2" to="909201405#0"/>
    <trip id="truck82" type="truck_truck" depart="303.53" departLane="best" from="-526516393" to="-58693723#3"/>
    <trip id="truck83" type="truck_truck" depart="307.23" departLane="best" from="-58693257#3" to="-678833741"/>
    <trip id="truck84" type="truck_truck" depart="310.93" departLane="best" from="486560406#1" to="58733332#1"/>
    <trip id="truck85" type="truck_truck" depart="314.63" departLane="best" from="477729319#0" to="527563032#2"/>
    <trip id="truck87" type="truck_truck" depart="322.04" departLane="best" from="58693470#1" to="737437197#1"/>
    <trip id="truck88" type="truck_truck" depart="325.74" departLane="best" from="-526516406#7" to="-58693718#4"/>
    <trip id="truck89" type="truck_truck" depart="329.44" departLane="best" from="535119935#8" to="-58693256#1"/>
    <trip id="truck90" type="truck_truck" depart="333.14" departLane="best" from="-59232633#1" to="-58692810#2"/>
    <trip id="truck91" type="truck_truck" depart="336.84" departLane="best" from="-686989871#0" to="-678299822#0"/>
    <trip id="truck92" type="truck_truck" depart="340.55" departLane="best" from="535119935#4" to="549354555#14"/>
    <trip id="truck93" type="truck_truck" depart="344.25" departLane="best" from="-10380660#8" to="-527563032#1"/>
    <trip id="truck94" type="truck_truck" depart="347.95" departLane="best" from="-58693726#4" to="-58693723#0"/>
    <trip id="truck95" type="truck_truck" depart="351.65" departLane="best" from="-59256808#0" to="-797312215#0"/>
    <trip id="truck96" type="truck_truck" depart="355.35" departLane="best" from="58693471#1" to="678937275#1"/>
    <trip id="truck97" type="truck_truck" depart="359.05" departLane="best" from="-679945378#1" to="58733436#2"/>
    <trip id="truck100" type="truck_truck" depart="370.16" departLane="best" from="-526510185" to="-58733302#2"/>
    <trip id="truck101" type="truck_truck" depart="373.86" departLane="best" from="682033887#7" to="682033887#16"/>
    <trip id="truck102" type="truck_truck" depart="377.56" departLane="best" from="549354555#15" to="836783618#1"/>
    <trip id="truck103" type="truck_truck" depart="381.26" departLane="best" from="-58692827#2" to="-126392724#1"/>
    <trip id="truck104" type="truck_truck" depart="384.96" departLane="best" from="678832754" to="678937275#0"/>
    <trip id="truck106" type="truck_truck" depart="392.37" departLane="best" from="-58692810#2" to="-678826881#1"/>
    <trip id="truck107" type="truck_truck" depart="396.07" departLane="best" departSpeed="max" from="26160253#0" to="689389878#2"/>
    <trip id="truck108" type="truck_truck" depart="399.77" departLane="best" from="1118730696#0" to="-678833727#0"/>
    <trip id="truck109" type="truck_truck" depart="403.47" departLane="best" from="-10380660#8" to="59256808#3"/>
    <trip id="truck111" type="truck_truck" depart="410.88" departLane="best" from="58733431#0" to="487993881#1"/>
    <trip id="truck112" type="truck_truck" depart="414.58" departLane="best" from="1212816577#0" to="-126392746#1"/>
    <trip id="truck113" type="truck_truck" depart="418.28" departLane="best" from="-526516406#11" to="682033887#9"/>
    <trip id="truck114" type="truck_truck" depart="421.98" departLane="best" from="689389878#0" to="485354908#2"/>
    <trip id="truck115" type="truck_truck" depart="425.68" departLane="best" from="678833734#2" to="527506011#1"/>
    <trip id="truck116" type="truck_truck" depart="429.38" departLane="best" from="-58693242#5" to="58692811#8"/>
    <trip id="truck117" type="truck_truck" depart="433.09" departLane="best" from="-678939086#0" to="688501967#6"/>
    <trip id="truck120" type="truck_truck" depart="444.19" departLane="best" from="-678299823#0" to="-535119935#8"/>
    <trip id="truck121" type="truck_truck" depart="447.89" departLane="best" from="677779364" to="682034230#1"/>
    <trip id="truck122" type="truck_truck" depart="451.59" departLane="best" from="-909201404" to="549354555#16"/>
    <trip id="truck123" type="truck_truck" depart="455.29" departLane="best" from="-58693257#3" to="693839662#1"/>
    <trip id="truck124" type="truck_truck" depart="459.00" departLane="best" from="680998587#7" to="757520990#7"/>
    <trip id="truck125" type="truck_truck" depart="462.70" departLane="best" from="678826882#2" to="26160220#9"/>
    <trip id="truck126" type="truck_truck" depart="466.40" departLane="best" from="204400387#3" to="58700732#5"/>
    <trip id="truck127" type="truck_truck" depart="470.10" departLane="best" from="-686989510#2" to="693839665#0"/>
    <trip id="truck128" type="truck_truck" depart="473.80" departLane="best" from="-678826027#8" to="679945379"/>
    <trip id="truck129" type="truck_truck" depart="477.50" departLane="best" departSpeed="max" from="682033887#0" to="678939087#0"/>
    <trip id="truck130" type="truck_truck" depart="481.21" departLane="best" from="-58733436#1" to="678830125#0"/>
    <trip id="truck131" type="truck_truck" depart="484.91" departLane="best" from="-204400381#4" to="-678939077#1"/>
    <trip id="truck132" type="truck_truck" depart="488.61" departLane="best" from="678826026#0" to="59050500#1"/>
    <trip id="truck133" type="truck_truck" depart="492.31" departLane="best" from="-682034231" to="-680998587#0"/>
    <trip id="truck134" type="truck_truck" depart="496.01" departLane="best" from="58692811#7" to="-836783612"/>
    <trip id="truck136" type="truck_truck" depart="503.42" departLane="best" from="740054158#1" to="-678826882#1"/>
    <trip id="truck137" type="truck_truck" depart="507.12" departLane="best" from="-536820660#0" to="126392724#0"/>
    <trip id="truck138" type="truck_truck" depart="510.82" departLane="best" from="58700732#5" to="-679945378#0"/>
    <trip id="truck139" type="truck_truck" depart="514.52" departLane="best" from="536824699" to="265039626#1"/>
    <trip id="truck140" type="truck_truck" depart="518.22" departLane="best" from="-678826027#0" to="-58693718#3"/>
    <trip id="truck141" type="truck_truck" depart="521.92" departLane="best" from="-10380660#1" to="-693834164#4"/>
    <trip id="truck142" type="truck_truck" depart="525.62" departLane="best" from="-693834164#4" to="-524948745#1"/>
    <trip id="truck143" type="truck_truck" depart="529.33" departLane="best" from="58693249#1" to="-686989510#3"/>
    <trip id="truck144" type="truck_truck" depart="533.03" departLane="best" from="-678948403" to="678936838"/>
    <trip id="truck145" type="truck_truck" depart="536.73" departLane="best" from="58694331#0" to="-678937275#1"/>
    <trip id="truck146" type="truck_truck" depart="540.43" departLane="best" from="-836783612" to="-678833740"/>
    <trip id="truck147" type="truck_truck" depart="544.13" departLane="best" from="58692811#7" to="10386813#1"/>
    <trip id="truck150" type="truck_truck" depart="555.24" departLane="best" from="-678936838" to="486560406#0"/>
    <trip id="truck151" type="truck_truck" depart="558.94" departLane="best" from="-1015933219" to="-678833733#3"/>
    <trip id="truck152" type="truck_truck" depart="562.64" departLane="best" from="1212816578" to="526516433#0"/>
    <trip id="truck153" type="truck_truck" depart="566.34" departLane="best" from="-58692827#3" to="-204400381#1"/>
    <trip id="truck154" type="truck_truck" depart="570.04" departLane="best" from="176333911#0" to="-58733302#4"/>
    <trip id="truck156" type="truck_truck" depart="577.45" departLane="best" from="678826026#1" to="-58693571#0"/>
    <trip id="truck157" type="truck_truck" depart="581.15" departLane="best" from="-526516426#3" to="265931326"/>
    <trip id="truck158" type="truck_truck" depart="584.85" departLane="best" from="-58692810#0" to="687681065#2"/>
    <trip id="truck159" type="truck_truck" depart="588.55" departLane="best" from="678833723#1" to="58733436#1"/>
    <trip id="truck160" type="truck_truck" depart="592.25" departLane="best" from="58693471#2" to="-58745984#0"/>
    <trip id="truck161" type="truck_truck" depart="595.96" departLane="best" from="-678939077#0" to="-526510185"/>
    <trip id="truck162" type="truck_truck" depart="599.66" departLane="best" from="-262716543" to="677779364"/>
    <trip id="truck163" type="truck_truck" depart="603.36" departLane="best" from="59232246#0" to="59256808#1"/>
    <trip id="truck164" type="truck_truck" depart="607.06" departLane="best" from="-536820657#3" to="1212816576#0"/>
    <trip id="truck165" type="truck_truck" depart="610.76" departLane="best" from="270354861" to="-26801860#3"/>
    <trip id="truck166" type="truck_truck" depart="614.46" departLane="best" from="678299823#0" to="678936838"/>
    <trip id="truck167" type="truck_truck" depart="618.16" departLane="best" from="204400380#3" to="678826026#5"/>
    <trip id="truck168" type="truck_truck" depart="621.87" departLane="best" from="58693257#1" to="836783618#2"/>
    <trip id="truck169" type="truck_truck" depart="625.57" departLane="best" from="-535119935#9" to="724436771#0"/>
    <trip id="truck170" type="truck_truck" depart="629.27" departLane="best" from="-686989872" to="536824689#2"/>
    <trip id="truck171" type="truck_truck" depart="632.97" departLane="best" from="58694331#0" to="527506011#1"/>
    <trip id="truck172" type="truck_truck" depart="636.67" departLane="best" from="678833733#1" to="486560406#0"/>
    <trip id="truck173" type="truck_truck" depart="640.37" departLane="best" from="688501967#4" to="-58733302#4"/>
    <trip id="truck174" type="truck_truck" depart="644.08" departLane="best" from="624908823" to="270354714#1"/>
    <trip id="truck175" type="truck_truck" depart="647.78" departLane="best" from="570301569#2" to="-678833723#2"/>
    <trip id="truck176" type="truck_truck" depart="651.48" departLane="best" from="-678832751#1" to="-680998587#8"/>
    <trip id="truck177" type="truck_truck" depart="655.18" departLane="best" from="485354908#3" to="-58692827#1"/>
    <trip id="truck178" type="truck_truck" depart="658.88" departLane="best" from="-59232251#1" to="58693572#0"/>
    <trip id="truck179" type="truck_truck" depart="662.58" departLane="best" from="58693720#3" to="486617211#0"/>
    <trip id="truck180" type="truck_truck" depart="666.29" departLane="best" from="-952704777" to="485354906#0"/>
    <trip id="truck181" type="truck_truck" depart="669.99" departLane="best" from="10384750#1" to="689389878#1"/>
    <trip id="truck182" type="truck_truck" depart="673.69" departLane="best" from="527563033#1" to="58693572#2"/>
    <trip id="truck183" type="truck_truck" depart="677.39" departLane="best" from="-678948400" to="59232633#0"/>
    <trip id="truck185" type="truck_truck" depart="684.79" departLane="best" from="678939086#3" to="730051773#1"/>
    <trip id="truck186" type="truck_truck" depart="688.49" departLane="best" from="-10380660#8" to="58733332#1"/>
    <trip id="truck187" type="truck_truck" depart="692.20" departLane="best" departSpeed="max" from="518839631" to="535119935#4"/>
    <trip id="truck188" type="truck_truck" depart="695.90" departLane="best" from="126392749#0" to="-217838955#1"/>
    <trip id="truck189" type="truck_truck" depart="699.60" departLane="best" from="-687681065#1" to="58693470#0"/>
    <trip id="truck190" type="truck_truck" depart="703.30" departLane="best" from="-836783618#1" to="-58693475#1"/>
    <trip id="truck192" type="truck_truck" depart="710.70" departLane="best" from="58704861#1" to="-686989509#0"/>
    <trip id="truck194" type="truck_truck" depart="718.11" departLane="best" from="-59232251#0" to="678833732#1"/>
    <trip id="truck195" type="truck_truck" depart="721.81" departLane="best" from="678299828" to="-526516416#0"/>
    <trip id="truck196" type="truck_truck" depart="725.51" departLane="best" from="-204400381#4" to="484235173#0"/>
    <trip id="truck197" type="truck_truck" depart="729.21" departLane="best" from="58692816#2" to="677772432#6"/>
    <trip id="truck198" type="truck_truck" depart="732.91" departLane="best" from="-204400381#6" to="58693257#1"/>
    <trip id="truck199" type="truck_truck" depart="736.62" departLane="best" from="-58692811#4" to="58693242#3"/>
    <trip id="truck200" type="truck_truck" depart="740.32" departLane="best" from="526516416#0" to="58733332#1"/>
    <trip id="truck201" type="truck_truck" depart="744.02" departLane="best" from="58693718#15" to="59232633#2"/>
    <trip id="truck202" type="truck_truck" depart="747.72" departLane="best" from="-58693476#1" to="536820657#3"/>
    <trip id="truck203" type="truck_truck" depart="751.42" departLane="best" from="678833723#2" to="740097435#2"/>
    <trip id="truck204" type="truck_truck" depart="755.12" departLane="best" from="737428082#1" to="797312238"/>
    <trip id="truck205" type="truck_truck" depart="758.82" departLane="best" from="58693725" to="-526516406#13"/>
    <trip id="truck206" type="truck_truck" depart="762.53" departLane="best" from="-535119935#3" to="596614567#0"/>
    <trip id="truck207" type="truck_truck" depart="766.23" departLane="best" from="678939077#1" to="-535119935#0"/>
    <trip id="truck208" type="truck_truck" depart="769.93" departLane="best" from="-58692810#3" to="836762044"/>
    <trip id="truck210" type="truck_truck" depart="777.33" departLane="best" from="-678939077#0" to="678833723#0"/>
    <trip id="truck211" type="truck_truck" depart="781.03" departLane="best" from="536820657#2" to="737437197#1"/>
    <trip id="truck212" type="truck_truck" depart="784.74" departLane="best" from="58692810#4" to="678833728#1"/>
    <trip id="truck213" type="truck_truck" depart="788.44" departLane="best" from="-58693720#6" to="126392724#1"/>
    <trip id="truck214" type="truck_truck" depart="792.14" departLane="best" from="58733302#1" to="740097435#3"/>
    <trip id="truck216" type="truck_truck" depart="799.54" departLane="best" from="126392748" to="58695005#2"/>
    <trip id="truck217" type="truck_truck" depart="803.24" departLane="best" from="678826883" to="678937275#6"/>
    <trip id="truck218" type="truck_truck" depart="806.95" departLane="best" from="678833733#1" to="-526516433#0"/>
    <trip id="truck219" type="truck_truck" depart="810.65" departLane="best" from="682033887#8" to="677779364"/>
    <trip id="truck220" type="truck_truck" depart="814.35" departLane="best" from="204400387#0" to="536820660#3"/>
    <trip id="truck222" type="truck_truck" depart="821.75" departLane="best" from="678939079" to="-58693718#11"/>
    <trip id="truck223" type="truck_truck" depart="825.45" departLane="best" from="-58704861#1" to="678299828"/>
    <trip id="truck224" type="truck_truck" depart="829.15" departLane="best" from="-688501967#4" to="682033887#3"/>
    <trip id="truck225" type="truck_truck" depart="832.86" departLane="best" from="58693718#4" to="678833726#2"/>
    <trip id="truck226" type="truck_truck" depart="836.56" departLane="best" from="126392746#1" to="722419631#3"/>
    <trip id="truck227" type="truck_truck" depart="840.26" departLane="best" from="-526516426#4" to="-58693724#0"/>
    <trip id="truck228" type="truck_truck" depart="843.96" departLane="best" departSpeed="max" from="26160253#0" to="59050500#2"/>
    <trip id="truck229" type="truck_truck" depart="847.66" departLane="best" from="-26167049#0" to="678299822#0"/>
    <trip id="truck230" type="truck_truck" depart="851.36" departLane="best" from="-527563033#1" to="-58733436#3"/>
    <trip id="truck231" type="truck_truck" depart="855.07" departLane="best" from="58693574#4" to="678939086#0"/>
    <trip id="truck232" type="truck_truck" depart="858.77" departLane="best" from="527563032#2" to="204400387#4"/>
    <trip id="truck233" type="truck_truck" depart="862.47" departLane="best" departSpeed="max" from="484235172#0" to="1212816576#0"/>
    <trip id="truck234" type="truck_truck" depart="866.17" departLane="best" from="-58745984#0" to="-686989510#3"/>
    <trip id="truck235" type="truck_truck" depart="869.87" departLane="best" from="-58693718#15" to="-58733302#9"/>
    <trip id="truck236" type="truck_truck" depart="873.57" departLane="best" from="26160220#7" to="58693726#1"/>
    <trip id="truck238" type="truck_truck" depart="880.98" departLane="best" from="-678833729#2" to="-535119935#2"/>
    <trip id="truck239" type="truck_truck" depart="884.68" departLane="best" from="-58693723#0" to="59050500#1"/>
    <trip id="truck240" type="truck_truck" depart="888.38" departLane="best" from="484235173#1" to="-678833723#2"/>
    <trip id="truck241" type="truck_truck" depart="892.08" departLane="best" from="757520990#3" to="524926720#1"/>
    <trip id="truck242" type="truck_truck" depart="895.78" departLane="best" from="-58693718#11" to="58692811#7"/>
    <trip id="truck243" type="truck_truck" depart="899.48" departLane="best" from="682018065#1" to="26160220#7"/>
    <trip id="truck244" type="truck_truck" depart="903.19" departLane="best" departSpeed="max" from="682033887#0" to="526516422#7"/>
    <trip id="truck245" type="truck_truck" depart="906.89" departLane="best" from="217838955#0" to="-126392751"/>
    <trip id="truck246" type="truck_truck" depart="910.59" departLane="best" from="-58693718#14" to="-270354712"/>
    <trip id="truck248" type="truck_truck" depart="917.99" departLane="best" from="678833727#2" to="-836783616"/>
    <trip id="truck249" type="truck_truck" depart="921.69" departLane="best" from="-526516393" to="549354555#7"/>
    <trip id="truck250" type="truck_truck" depart="925.40" departLane="best" from="-270354714#2" to="58693249#1"/>
    <trip id="truck251" type="truck_truck" depart="929.10" departLane="best" from="526516406#8" to="678937277"/>
    <trip id="truck252" type="truck_truck" depart="932.80" departLane="best" from="909201405#6" to="-58692810#0"/>
    <trip id="truck253" type="truck_truck" depart="936.50" departLane="best" from="32887506#6" to="176333911#11"/>
    <trip id="truck254" type="truck_truck" depart="940.20" departLane="best" from="176333911#1" to="678939087#2"/>
    <trip id="truck255" type="truck_truck" depart="943.90" departLane="best" from="909201404" to="-678939077#1"/>
    <trip id="truck256" type="truck_truck" depart="947.61" departLane="best" from="-58695005#1" to="-58733302#0"/>
    <trip id="truck257" type="truck_truck" depart="951.31" departLane="best" from="58693242#2" to="-58693471#1"/>
    <trip id="truck258" type="truck_truck" depart="955.01" departLane="best" from="-58693573#0" to="-526516406#11"/>
    <trip id="truck259" type="truck_truck" depart="958.71" departLane="best" from="-10380660#5" to="176333911#11"/>
    <trip id="truck260" type="truck_truck" depart="962.41" departLane="best" from="-535119935#3" to="-678833735#1"/>
    <trip id="truck261" type="truck_truck" depart="966.11" departLane="best" from="-59232251#1" to="58693718#14"/>
    <trip id="truck262" type="truck_truck" depart="969.81" departLane="best" from="58693572#2" to="-693834164#0"/>
    <trip id="truck263" type="truck_truck" depart="973.52" departLane="best" from="-678299821#1" to="549354555#22"/>
    <trip id="truck264" type="truck_truck" depart="977.22" departLane="best" from="58733302#5" to="485354908#0"/>
    <trip id="truck266" type="truck_truck" depart="984.62" departLane="best" from="58693475#1" to="678939086#2"/>
    <trip id="truck267" type="truck_truck" depart="988.32" departLane="best" from="-678833733#3" to="58692811#2"/>