<?xml version="1.0" encoding="UTF-8"?>

<!-- generated on 2024-11-16 16:23:45.868098 by osmWebWizard.py v1_21_0+0000-d7b3b481c43
<configuration>
    <net-file value="C:\Users\salar\Sumo\2024-11-16-16-23-28\osm.net.xml.gz"/>
    <output-trip-file value="C:\Users\salar\Sumo\2024-11-16-16-23-28\osm.pedestrian.trips.xml"/>
    <route-file value="C:\Users\salar\Sumo\2024-11-16-16-23-28\osm.pedestrian.rou.xml"/>
    <pedestrians value="True"/>
    <prefix value="ped"/>
    <vehicle-class value="pedestrian"/>
    <fringe-factor value="1"/>
    <max-distance value="2000.0"/>
    <insertion-density value="10.0"/>
</configuration>
-->

<routes xmlns:xsi="http://www.w3.org/2001/XMLSchema-instance" xsi:noNamespaceSchemaLocation="http://sumo.dlr.de/xsd/routes_file.xsd">
    <vType id="ped_pedestrian" vClass="pedestrian"/>
    <person id="ped0" depart="0.00" type="ped_pedestrian">
        <walk from="689859870#14" to="-1255379900"/>
    </person>
    <person id="ped1" depart="9.08" type="ped_pedestrian">
        <walk from="-724436766#1" to="-686989869"/>
    </person>
    <person id="ped2" depart="18.16" type="ped_pedestrian">
        <walk from="694159590#11" to="689859870#39"/>
    </person>
    <person id="ped3" depart="27.24" type="ped_pedestrian">
        <walk from="746894140#1" to="-546417934#1"/>
    </person>
    <person id="ped4" depart="36.32" type="ped_pedestrian">
        <walk from="265039016#4" to="-1255379902#1"/>
    </person>
    <person id="ped5" depart="45.40" type="ped_pedestrian">
        <walk from="689859870#21" to="678299825#0"/>
    </person>
    <person id="ped6" depart="54.49" type="ped_pedestrian">
        <walk from="-686989867" to="681771930"/>
    </person>
    <person id="ped7" depart="63.57" type="ped_pedestrian">
        <walk from="730052520" to="-1042239612"/>
    </person>
    <person id="ped8" depart="72.65" type="ped_pedestrian">
        <walk from="724436795" to="693182284"/>
    </person>
    <person id="ped9" depart="81.73" type="ped_pedestrian">
        <walk from="-803684993" to="-678299825#1"/>
    </person>
    <person id="ped10" depart="90.81" type="ped_pedestrian">
        <walk from="952704778" to="-790956708"/>
    </person>
    <person id="ped11" depart="99.89" type="ped_pedestrian">
        <walk from="-58692811#1" to="-58692811#4"/>
    </person>
    <person id="ped12" depart="108.97" type="ped_pedestrian">
        <walk from="737434327#1" to="682021747#1"/>
    </person>
    <person id="ped13" depart="118.05" type="ped_pedestrian">
        <walk from="730051775" to="694159589#8"/>
    </person>
    <person id="ped14" depart="127.13" type="ped_pedestrian">
        <walk from="673175462#0" to="985968604#17"/>
    </person>
    <person id="ped15" depart="136.21" type="ped_pedestrian">
        <walk from="1042239614" to="678833738"/>
    </person>
    <person id="ped16" depart="145.29" type="ped_pedestrian">
        <walk from="737434325#1" to="686989868"/>
    </person>
    <person id="ped17" depart="154.38" type="ped_pedestrian">
        <walk from="737481694" to="681534121#0"/>
    </person>
    <person id="ped18" depart="163.46" type="ped_pedestrian">
        <walk from="693428651#1" to="-265039016#4"/>
    </person>
    <person id="ped19" depart="172.54" type="ped_pedestrian">
        <walk from="-687681063#1" to="-734372603#0"/>
    </person>
    <person id="ped20" depart="181.62" type="ped_pedestrian">
        <walk from="-536824693#1" to="-687681067"/>
    </person>
    <person id="ped21" depart="190.70" type="ped_pedestrian">
        <walk from="-58692811#8" to="-724436774#0"/>
    </person>
    <person id="ped22" depart="199.78" type="ped_pedestrian">
        <walk from="689859870#11" to="-836833342"/>
    </person>
    <person id="ped23" depart="208.86" type="ped_pedestrian">
        <walk from="-909813230" to="-682021749"/>
    </person>
    <person id="ped24" depart="217.94" type="ped_pedestrian">
        <walk from="-724436735#1" to="805918558"/>
    </person>
    <person id="ped25" depart="227.02" type="ped_pedestrian">
        <walk from="-678939087#2" to="694159589#7"/>
    </person>
    <person id="ped26" depart="236.10" type="ped_pedestrian">
        <walk from="-678939077#0" to="1042239615#0"/>
    </person>
    <person id="ped27" depart="245.18" type="ped_pedestrian">
        <walk from="985968604#28" to="689859870#14"/>
    </person>
    <person id="ped28" depart="254.26" type="ped_pedestrian">
        <walk from="678939077#1" to="689859870#9"/>
    </person>
    <person id="ped29" depart="263.35" type="ped_pedestrian">
        <walk from="737434326#2" to="694159607#9"/>
    </person>
    <person id="ped30" depart="272.43" type="ped_pedestrian">
        <walk from="-687681064" to="-263087914#0"/>
    </person>
    <person id="ped31" depart="281.51" type="ped_pedestrian">
        <walk from="-737494647" to="-724436735#1"/>
    </person>
    <person id="ped32" depart="290.59" type="ped_pedestrian">
        <walk from="-682033888#0" to="836722108"/>
    </person>
    <person id="ped33" depart="299.67" type="ped_pedestrian">
        <walk from="737498357#3" to="-737494647"/>
    </person>
    <person id="ped34" depart="308.75" type="ped_pedestrian">
        <walk from="689859870#25" to="1209562218"/>
    </person>
    <person id="ped35" depart="317.83" type="ped_pedestrian">
        <walk from="778334228#0" to="535124150#1"/>
    </person>
    <person id="ped36" depart="326.91" type="ped_pedestrian">
        <walk from="-723275248" to="-693428651#1"/>
    </person>
    <person id="ped37" depart="335.99" type="ped_pedestrian">
        <walk from="678939087#0" to="-723055739#1"/>
    </person>
    <person id="ped38" depart="345.07" type="ped_pedestrian">
        <walk from="681534128#0" to="756791321#1"/>
    </person>
    <person id="ped39" depart="354.15" type="ped_pedestrian">
        <walk from="985968604#8" to="59232629#0"/>
    </person>
    <person id="ped40" depart="363.24" type="ped_pedestrian">
        <walk from="-58692811#0" to="-265039016#5"/>
    </person>
    <person id="ped41" depart="372.32" type="ped_pedestrian">
        <walk from="-58693475#1" to="687681066#1"/>
    </person>
    <person id="ped42" depart="381.40" type="ped_pedestrian">
        <walk from="724436735#1" to="265039016#4"/>
    </person>
    <person id="ped43" depart="390.48" type="ped_pedestrian">
        <walk from="-532492242#0" to="1042239615#1"/>
    </person>
    <person id="ped44" depart="399.56" type="ped_pedestrian">
        <walk from="985968604#7" to="656326592"/>
    </person>
    <person id="ped45" depart="408.64" type="ped_pedestrian">
        <walk from="985968604#15" to="737481694"/>
    </person>
    <person id="ped46" depart="417.72" type="ped_pedestrian">
        <walk from="-1042240962#0" to="694159589#14"/>
    </person>
    <person id="ped47" depart="426.80" type="ped_pedestrian">
        <walk from="689859870#7" to="673175462#1"/>
    </person>
    <person id="ped48" depart="435.88" type="ped_pedestrian">
        <walk from="-724436735#1" to="689859870#15"/>
    </person>
    <person id="ped49" depart="444.96" type="ped_pedestrian">
        <walk from="532492259#1" to="909792141"/>
    </person>
    <person id="ped50" depart="454.04" type="ped_pedestrian">
        <walk from="737498357#3" to="-723055739#1"/>
    </person>
    <person id="ped51" depart="463.13" type="ped_pedestrian">
        <walk from="58733436#0" to="-681525551"/>
    </person>
    <person id="ped52" depart="472.21" type="ped_pedestrian">
        <walk from="778334227" to="737498356#1"/>
    </person>
    <person id="ped53" depart="481.29" type="ped_pedestrian">
        <walk from="-737428083" to="689859870#14"/>
    </person>
    <person id="ped54" depart="490.37" type="ped_pedestrian">
        <walk from="686989864#0" to="-678299823#1"/>
    </person>
    <person id="ped55" depart="499.45" type="ped_pedestrian">
        <walk from="694159607#11" to="673175463#1"/>
    </person>
    <person id="ped56" depart="508.53" type="ped_pedestrian">
        <walk from="694358421#1" to="656326593"/>
    </person>
    <person id="ped57" depart="517.61" type="ped_pedestrian">
        <walk from="-1020975672#0" to="-758634934"/>
    </person>
    <person id="ped58" depart="526.69" type="ped_pedestrian">
        <walk from="-1209562216" to="803684996#3"/>
    </person>
    <person id="ped59" depart="535.77" type="ped_pedestrian">
        <walk from="737498357#5" to="737434325#2"/>
    </person>
    <person id="ped60" depart="544.85" type="ped_pedestrian">
        <walk from="-737442851" to="-265039236"/>
    </person>
    <person id="ped61" depart="553.93" type="ped_pedestrian">
        <walk from="737498357#4" to="836833342"/>
    </person>
    <person id="ped62" depart="563.01" type="ped_pedestrian">
        <walk from="-546417934#0" to="58692812#0"/>
    </person>
    <person id="ped63" depart="572.10" type="ped_pedestrian">
        <walk from="-532492258" to="694159607#10"/>
    </person>
    <person id="ped64" depart="581.18" type="ped_pedestrian">
        <walk from="694159607#13" to="-59232632#2"/>
    </person>
    <person id="ped65" depart="590.26" type="ped_pedestrian">
        <walk from="58692811#0" to="678832750"/>
    </person>
    <person id="ped66" depart="599.34" type="ped_pedestrian">
        <walk from="-723275248" to="737498357#0"/>
    </person>
    <person id="ped67" depart="608.42" type="ped_pedestrian">
        <walk from="265039016#5" to="-682033888#0"/>
    </person>
    <person id="ped68" depart="617.50" type="ped_pedestrian">
        <walk from="673175463#1" to="694159589#8"/>
    </person>
    <person id="ped69" depart="626.58" type="ped_pedestrian">
        <walk from="-682019265" to="-737481760#1"/>
    </person>
    <person id="ped70" depart="635.66" type="ped_pedestrian">
        <walk from="985968604#6" to="689859870#21"/>
    </person>
    <person id="ped71" depart="644.74" type="ped_pedestrian">
        <walk from="526516428#1" to="59232632#4"/>
    </person>
    <person id="ped72" depart="653.82" type="ped_pedestrian">
        <walk from="-803684992" to="681771930"/>
    </person>
    <person id="ped73" depart="662.90" type="ped_pedestrian">
        <walk from="-687681066#0" to="-686989866#1"/>
    </person>
    <person id="ped74" depart="671.99" type="ped_pedestrian">
        <walk from="-532494060" to="689859870#0"/>
    </person>
    <person id="ped75" depart="681.07" type="ped_pedestrian">
        <walk from="-687681064" to="758634957"/>
    </person>
    <person id="ped76" depart="690.15" type="ped_pedestrian">
        <walk from="737442851" to="-532494060"/>
    </person>
    <person id="ped77" depart="699.23" type="ped_pedestrian">
        <walk from="-690075767" to="689859870#34"/>
    </person>
    <person id="ped78" depart="708.31" type="ped_pedestrian">
        <walk from="-686989864#0" to="-59232632#5"/>
    </person>
    <person id="ped79" depart="717.39" type="ped_pedestrian">
        <walk from="805308600" to="681525550#0"/>
    </person>
    <person id="ped80" depart="726.47" type="ped_pedestrian">
        <walk from="546417938" to="694453647"/>
    </person>
    <person id="ped81" depart="735.55" type="ped_pedestrian">
        <walk from="730051775" to="-681534128#1"/>
    </person>
    <person id="ped82" depart="744.63" type="ped_pedestrian">
        <walk from="-58692811#4" to="265039135#2"/>
    </person>
    <person id="ped83" depart="753.71" type="ped_pedestrian">
        <walk from="265039016#5" to="539450287"/>
    </person>
    <person id="ped84" depart="762.79" type="ped_pedestrian">
        <walk from="694159589#7" to="689859870#37"/>
    </person>
    <person id="ped85" depart="771.88" type="ped_pedestrian">
        <walk from="985968604#24" to="-58692811#6"/>
    </person>
    <person id="ped86" depart="780.96" type="ped_pedestrian">
        <walk from="1255379901" to="-803684993"/>
    </person>
    <person id="ped87" depart="790.04" type="ped_pedestrian">
        <walk from="737481694" to="-693840343"/>
    </person>
    <person id="ped88" depart="799.12" type="ped_pedestrian">
        <walk from="265039016#4" to="-724436774#0"/>
    </person>
    <person id="ped89" depart="808.20" type="ped_pedestrian">
        <walk from="-693851586" to="803684994"/>
    </person>
    <person id="ped90" depart="817.28" type="ped_pedestrian">
        <walk from="532492237" to="737481694"/>
    </person>
    <person id="ped91" depart="826.36" type="ped_pedestrian">
        <walk from="678832755" to="-265039016#8"/>
    </person>
    <person id="ped92" depart="835.44" type="ped_pedestrian">
        <walk from="985968604#9" to="737434325#6"/>
    </person>
    <person id="ped93" depart="844.52" type="ped_pedestrian">
        <walk from="985968604#14" to="803684996#1"/>
    </person>
    <person id="ped94" depart="853.60" type="ped_pedestrian">
        <walk from="737434327#2" to="-678939079"/>
    </person>
    <person id="ped95" depart="862.68" type="ped_pedestrian">
        <walk from="58692812#0" to="-686989864#0"/>
    </person>
    <person id="ped96" depart="871.76" type="ped_pedestrian">
        <walk from="1255379900" to="-265039236"/>
    </person>
    <person id="ped97" depart="880.85" type="ped_pedestrian">
        <walk from="1042239615#0" to="985968604#25"/>
    </person>
    <person id="ped98" depart="889.93" type="ped_pedestrian">
        <walk from="-723275248" to="694453647"/>
    </person>
    <person id="ped99" depart="899.01" type="ped_pedestrian">
        <walk from="532494060" to="265039016#5"/>
    </person>
    <person id="ped100" depart="908.09" type="ped_pedestrian">
        <walk from="952704778" to="985968604#6"/>
    </person>
    <person id="ped101" depart="917.17" type="ped_pedestrian">
        <walk from="678939077#0" to="694159589#13"/>
    </person>
    <person id="ped102" depart="926.25" type="ped_pedestrian">
        <walk from="-678299825#1" to="-734372607#0"/>
    </person>
    <person id="ped103" depart="935.33" type="ped_pedestrian">
        <walk from="985968604#14" to="681534121#1"/>
    </person>
    <person id="ped104" depart="944.41" type="ped_pedestrian">
        <walk from="678299823#0" to="694159590#2"/>
    </person>
    <person id="ped105" depart="953.49" type="ped_pedestrian">
        <walk from="58733436#2" to="737434329#1"/>
    </person>
    <person id="ped106" depart="962.57" type="ped_pedestrian">
        <walk from="-678832750" to="985968604#0"/>
    </person>
    <person id="ped107" depart="971.65" type="ped_pedestrian">
        <walk from="-536824693#1" to="-681534121#2"/>
    </person>
    <person id="ped108" depart="980.74" type="ped_pedestrian">
        <walk from="681771934" to="689859870#38"/>
    </person>
    <person id="ped109" depart="989.82" type="ped_pedestrian">
        <walk from="-689389601" to="-58734650#0"/>
    </person>
    <person id="ped110" depart="998.90" type="ped_pedestrian">
        <walk from="740035040" to="-693428651#0"/>
    </person>
    <person id="ped111" depart="1007.98" type="ped_pedestrian">
        <walk from="681771934" to="686989868"/>
    </person>
    <person id="ped112" depart="1017.06" type="ped_pedestrian">
        <walk from="265039016#2" to="681534125"/>
    </person>
    <person id="ped113" depart="1026.14" type="ped_pedestrian">
        <walk from="59232635#1" to="805308600"/>
    </person>
    <person id="ped114" depart="1035.22" type="ped_pedestrian">
        <walk from="-682020794#1" to="694159589#11"/>
    </person>
    <person id="ped115" depart="1044.30" type="ped_pedestrian">
        <walk from="-691546702" to="1209562218"/>
    </person>
    <person id="ped116" depart="1053.38" type="ped_pedestrian">
        <walk from="689859870#36" to="-737432504"/>
    </person>
    <person id="ped117" depart="1062.46" type="ped_pedestrian">
        <walk from="-740035040" to="694159590#5"/>
    </person>
    <person id="ped118" depart="1071.54" type="ped_pedestrian">
        <walk from="-535124150#0" to="535124150#1"/>
    </person>
    <person id="ped119" depart="1080.63" type="ped_pedestrian">
        <walk from="985968604#8" to="985968604#7"/>
    </person>
    <person id="ped120" depart="1089.71" type="ped_pedestrian">
        <walk from="-535124150#0" to="-686989863"/>
    </person>
    <person id="ped121" depart="1098.79" type="ped_pedestrian">
        <walk from="737498357#6" to="737498357#5"/>
    </person>
    <person id="ped122" depart="1107.87" type="ped_pedestrian">
        <walk from="-909813230" to="-678832750"/>
    </person>
    <person id="ped123" depart="1116.95" type="ped_pedestrian">
        <walk from="737434325#4" to="693428651#0"/>
    </person>
    <person id="ped124" depart="1126.03" type="ped_pedestrian">
        <walk from="689859870#24" to="-1042239615#0"/>
    </person>
    <person id="ped125" depart="1135.11" type="ped_pedestrian">
        <walk from="734372604" to="-737428083"/>
    </person>
    <person id="ped126" depart="1144.19" type="ped_pedestrian">
        <walk from="689859870#3" to="805918559#1"/>
    </person>
    <person id="ped127" depart="1153.27" type="ped_pedestrian">
        <walk from="-656326589" to="-58733436#0"/>
    </person>
    <person id="ped128" depart="1162.35" type="ped_pedestrian">
        <walk from="-58692812#4" to="678833743"/>
    </person>
    <person id="ped129" depart="1171.43" type="ped_pedestrian">
        <walk from="-724436765#0" to="682021749"/>
    </person>
    <person id="ped130" depart="1180.51" type="ped_pedestrian">
        <walk from="694159589#12" to="-682020794#0"/>
    </person>
    <person id="ped131" depart="1189.60" type="ped_pedestrian">
        <walk from="689859870#10" to="-723055739#1"/>
    </person>
    <person id="ped132" depart="1198.68" type="ped_pedestrian">
        <walk from="58692812#2" to="758634957"/>
    </person>
    <person id="ped133" depart="1207.76" type="ped_pedestrian">
        <walk from="737434327#0" to="-58692811#1"/>
    </person>
    <person id="ped134" depart="1216.84" type="ped_pedestrian">
        <walk from="265039016#5" to="-724436768"/>
    </person>
    <person id="ped135" depart="1225.92" type="ped_pedestrian">
        <walk from="-1040543485" to="694159607#5"/>
    </person>
    <person id="ped136" depart="1235.00" type="ped_pedestrian">
        <walk from="689859870#12" to="-723055739#0"/>
    </person>
    <person id="ped137" depart="1244.08" type="ped_pedestrian">
        <walk from="694159590#14" to="678833738"/>
    </person>
    <person id="ped138" depart="1253.16" type="ped_pedestrian">
        <walk from="-535124151" to="737498359"/>
    </person>
    <person id="ped139" depart="1262.24" type="ped_pedestrian">
        <walk from="758634956" to="678299825#0"/>
    </person>
    <person id="ped140" depart="1271.32" type="ped_pedestrian">
        <walk from="737434325#5" to="681534123"/>
    </person>
    <person id="ped141" depart="1280.40" type="ped_pedestrian">
        <walk from="-673175463#1" to="-59232632#2"/>
    </person>
    <person id="ped142" depart="1289.49" type="ped_pedestrian">
        <walk from="-737481694" to="756795076"/>
    </person>
    <person id="ped143" depart="1298.57" type="ped_pedestrian">
        <walk from="724436764#1" to="737481694"/>
    </person>
    <person id="ped144" depart="1307.65" type="ped_pedestrian">
        <walk from="756795076" to="-682021749"/>
    </person>
    <person id="ped145" depart="1316.73" type="ped_pedestrian">
        <walk from="-693851586" to="-58692812#1"/>
    </person>
    <person id="ped146" depart="1325.81" type="ped_pedestrian">
        <walk from="694358421#2" to="737498360"/>
    </person>
    <person id="ped147" depart="1334.89" type="ped_pedestrian">
        <walk from="-678299825#0" to="803684996#3"/>
    </person>
    <person id="ped148" depart="1343.97" type="ped_pedestrian">
        <walk from="737481761" to="985968604#19"/>
    </person>
    <person id="ped149" depart="1353.05" type="ped_pedestrian">
        <walk from="733186301" to="737498358"/>
    </person>
    <person id="ped150" depart="1362.13" type="ped_pedestrian">
        <walk from="-1255379900" to="694159590#11"/>
    </person>
    <person id="ped151" depart="1371.21" type="ped_pedestrian">
        <walk from="-778334227" to="803684996#4"/>
    </person>
    <person id="ped152" depart="1380.29" type="ped_pedestrian">
        <walk from="724436766#1" to="737481760#1"/>
    </person>
    <person id="ped153" depart="1389.38" type="ped_pedestrian">
        <walk from="733186301" to="-724436735#1"/>
    </person>
    <person id="ped154" depart="1398.46" type="ped_pedestrian">
        <walk from="723055739#0" to="-58693475#0"/>
    </person>
    <person id="ped155" depart="1407.54" type="ped_pedestrian">
        <walk from="737498357#0" to="737442819"/>
    </person>
    <person id="ped156" depart="1416.62" type="ped_pedestrian">
        <walk from="-686989868" to="734372603#1"/>
    </person>
    <person id="ped157" depart="1425.70" type="ped_pedestrian">
        <walk from="535124151" to="-737442819"/>
    </person>
    <person id="ped158" depart="1434.78" type="ped_pedestrian">
        <walk from="724436764#1" to="-687681063#1"/>
    </person>
    <person id="ped159" depart="1443.86" type="ped_pedestrian">
        <walk from="-1209562218" to="-681771930"/>
    </person>
    <person id="ped160" depart="1452.94" type="ped_pedestrian">
        <walk from="-775067459#0" to="737481760#1"/>
    </person>
    <person id="ped161" depart="1462.02" type="ped_pedestrian">
        <walk from="985968604#12" to="-724436774#1"/>
    </person>
    <person id="ped162" depart="1471.10" type="ped_pedestrian">
        <walk from="689859870#15" to="1233025315#1"/>
    </person>
    <person id="ped163" depart="1480.18" type="ped_pedestrian">
        <walk from="985968604#22" to="673175462#0"/>
    </person>
    <person id="ped164" depart="1489.26" type="ped_pedestrian">
        <walk from="985968604#15" to="-681525551"/>
    </person>
    <person id="ped165" depart="1498.35" type="ped_pedestrian">
        <walk from="985968604#1" to="-724436735#0"/>
    </person>
    <person id="ped166" depart="1507.43" type="ped_pedestrian">
        <walk from="694159589#7" to="-737494641"/>
    </person>
    <person id="ped167" depart="1516.51" type="ped_pedestrian">
        <walk from="682033888#0" to="59232629#1"/>
    </person>
    <person id="ped168" depart="1525.59" type="ped_pedestrian">
        <walk from="1042240962#1" to="681534119#1"/>
    </person>
    <person id="ped169" depart="1534.67" type="ped_pedestrian">
        <walk from="-694358421#1" to="693879977"/>
    </person>
    <person id="ped170" depart="1543.75" type="ped_pedestrian">
        <walk from="-1020975672#1" to="803684996#0"/>
    </person>
    <person id="ped171" depart="1552.83" type="ped_pedestrian">
        <walk from="673175463#0" to="694159589#13"/>
    </person>
    <person id="ped172" depart="1561.91" type="ped_pedestrian">
        <walk from="694159590#15" to="689859870#35"/>
    </person>
    <person id="ped173" depart="1570.99" type="ped_pedestrian">
        <walk from="-836833342" to="-532494060"/>
    </person>
    <person id="ped174" depart="1580.07" type="ped_pedestrian">
        <walk from="689859870#30" to="-775067459#2"/>
    </person>
    <person id="ped175" depart="1589.15" type="ped_pedestrian">
        <walk from="-737494641" to="737434327#1"/>
    </person>
    <person id="ped176" depart="1598.24" type="ped_pedestrian">
        <walk from="694159589#14" to="-737432504"/>
    </person>
    <person id="ped177" depart="1607.32" type="ped_pedestrian">
        <walk from="-737481760#0" to="263087914#0"/>
    </person>
    <person id="ped178" depart="1616.40" type="ped_pedestrian">
        <walk from="-59232632#2" to="265039016#3"/>
    </person>
    <person id="ped179" depart="1625.48" type="ped_pedestrian">
        <walk from="834865115" to="689859870#4"/>
    </person>
    <person id="ped180" depart="1634.56" type="ped_pedestrian">
        <walk from="758634955" to="686989866#1"/>
    </person>
    <person id="ped181" depart="1643.64" type="ped_pedestrian">
        <walk from="-737432504" to="678299826"/>
    </person>
    <person id="ped182" depart="1652.72" type="ped_pedestrian">
        <walk from="265039135#1" to="681534121#1"/>
    </person>
    <person id="ped183" depart="1661.80" type="ped_pedestrian">
        <walk from="689859870#24" to="536824693#1"/>
    </person>
    <person id="ped184" depart="1670.88" type="ped_pedestrian">
        <walk from="546417938" to="758634934"/>
    </person>
    <person id="ped185" depart="1679.96" type="ped_pedestrian">
        <walk from="724436764#1" to="-678939087#1"/>
    </person>
    <person id="ped186" depart="1689.04" type="ped_pedestrian">
        <walk from="-539450289" to="59232632#2"/>
    </person>
    <person id="ped187" depart="1698.13" type="ped_pedestrian">
        <walk from="689859870#1" to="-790956703"/>
    </person>
    <person id="ped188" depart="1707.21" type="ped_pedestrian">
        <walk from="734372605" to="694159590#5"/>
    </person>
    <person id="ped189" depart="1716.29" type="ped_pedestrian">
        <walk from="689859870#36" to="-686989870"/>
    </person>
    <person id="ped190" depart="1725.37" type="ped_pedestrian">
        <walk from="-681771934" to="-1209562218"/>
    </person>
    <person id="ped191" depart="1734.45" type="ped_pedestrian">
        <walk from="-693428650" to="58692811#0"/>
    </person>
    <person id="ped192" depart="1743.53" type="ped_pedestrian">
        <walk from="737434327#3" to="-535124150#0"/>
    </person>
    <person id="ped193" depart="1752.61" type="ped_pedestrian">
        <walk from="265038975#1" to="689389601"/>
    </person>
    <person id="ped194" depart="1761.69" type="ped_pedestrian">
        <walk from="-681771931" to="691546702"/>
    </person>
    <person id="ped195" depart="1770.77" type="ped_pedestrian">
        <walk from="58693475#1" to="-693428650"/>
    </person>
    <person id="ped196" depart="1779.85" type="ped_pedestrian">
        <walk from="689859870#25" to="-1042239612"/>
    </person>
    <person id="ped197" depart="1788.93" type="ped_pedestrian">
        <walk from="694159590#4" to="694159607#4"/>
    </person>
    <person id="ped198" depart="1798.01" type="ped_pedestrian">
        <walk from="-58692812#3" to="265039016#7"/>
    </person>
    <person id="ped199" depart="1807.10" type="ped_pedestrian">
        <walk from="-681525550#0" to="985968602#0"/>
    </person>
    <person id="ped200" depart="1816.18" type="ped_pedestrian">
        <walk from="59232632#4" to="-265039016#8"/>
    </person>
    <person id="ped201" depart="1825.26" type="ped_pedestrian">
        <walk from="-693851586" to="737434327#2"/>
    </person>
    <person id="ped202" depart="1834.34" type="ped_pedestrian">
        <walk from="535119933" to="724436766#0"/>
    </person>
    <person id="ped203" depart="1843.42" type="ped_pedestrian">
        <walk from="689859870#32" to="985968604#27"/>
    </person>
    <person id="ped204" depart="1852.50" type="ped_pedestrian">
        <walk from="746894140#0" to="686989865"/>
    </person>
    <person id="ped205" depart="1861.58" type="ped_pedestrian">
        <walk from="694159589#13" to="58734650#0"/>
    </person>
    <person id="ped206" depart="1870.66" type="ped_pedestrian">
        <walk from="737434325#2" to="678299826"/>
    </person>
    <person id="ped207" depart="1879.74" type="ped_pedestrian">
        <walk from="756791321#0" to="694159590#16"/>
    </person>
    <person id="ped208" depart="1888.82" type="ped_pedestrian">
        <walk from="546417939" to="-694360977"/>
    </person>
    <person id="ped209" depart="1897.90" type="ped_pedestrian">
        <walk from="-693428651#1" to="689859870#13"/>
    </person>
    <person id="ped210" depart="1906.99" type="ped_pedestrian">
        <walk from="694159607#13" to="59232635#0"/>
    </person>
    <person id="ped211" depart="1916.07" type="ped_pedestrian">
        <walk from="687681066#1" to="-724436766#0"/>
    </person>
    <person id="ped212" depart="1925.15" type="ped_pedestrian">
        <walk from="-536824692" to="-733186301"/>
    </person>
    <person id="ped213" depart="1934.23" type="ped_pedestrian">
        <walk from="-724436764#2" to="-756791321#0"/>
    </person>
    <person id="ped214" depart="1943.31" type="ped_pedestrian">
        <walk from="673175463#1" to="-656326593"/>
    </person>
    <person id="ped215" depart="1952.39" type="ped_pedestrian">
        <walk from="-687681066#1" to="690074141#1"/>
    </person>
    <person id="ped216" depart="1961.47" type="ped_pedestrian">
        <walk from="1255379902#3" to="678299823#0"/>
    </person>
    <person id="ped217" depart="1970.55" type="ped_pedestrian">
        <walk from="265038975#2" to="-682021747#0"/>
    </person>
    <person id="ped218" depart="1979.63" type="ped_pedestrian">
        <walk from="265039016#3" to="758634957"/>
    </person>
    <person id="ped219" depart="1988.71" type="ped_pedestrian">
        <walk from="681534125" to="690075767"/>
    </person>
    <person id="ped220" depart="1997.79" type="ped_pedestrian">
        <walk from="737442813" to="694159607#13"/>
    </person>
    <person id="ped221" depart="2006.88" type="ped_pedestrian">
        <walk from="1042239615#1" to="-1042239612"/>
    </person>
    <person id="ped222" depart="2015.96" type="ped_pedestrian">
        <walk from="-805308598" to="694159590#6"/>
    </person>
    <person id="ped223" depart="2025.04" type="ped_pedestrian">
        <walk from="737434329#1" to="909203138"/>
    </person>
    <person id="ped224" depart="2034.12" type="ped_pedestrian">
        <walk from="265039016#2" to="694159590#2"/>
    </person>
    <person id="ped225" depart="2043.20" type="ped_pedestrian">
        <walk from="678299825#1" to="682021747#0"/>
    </person>
    <person id="ped226" depart="2052.28" type="ped_pedestrian">
        <walk from="-686989867" to="-686989866#1"/>
    </person>