<?xml version="1.0" encoding="UTF-8"?>

<!-- generated on 2024-11-16 16:23:38.867561 by osmWebWizard.py v1_21_0+0000-d7b3b481c43
<configuration>
    <net-file value="C:\Users\salar\Sumo\2024-11-16-16-23-28\osm.net.xml.gz"/>
    <output-trip-file value="C:\Users\salar\Sumo\2024-11-16-16-23-28\osm.bicycle.trips.xml"/>
    <route-file value="C:\Users\salar\Sumo\2024-11-16-16-23-28\osm.bicycle.rou.xml"/>
    <prefix value="bike"/>
    <trip-attributes value="departLane=&quot;best&quot;"/>
    <fringe-start-attributes value="departSpeed=&quot;max&quot;"/>
    <vehicle-class value="bicycle"/>
    <fringe-factor value="2"/>
    <vclass value="bicycle"/>
    <via-edge-types value="highway.motorway,highway.motorway_link,highway.trunk_link,highway.primary_link,highway.secondary_link,highway.tertiary_link"/>
    <max-distance value="8000.0"/>
    <remove-loops value="True"/>
    <validate value="True"/>
    <insertion-density value="6.0"/>
</configuration>
-->

<!-- generated on 2024-11-16 16:23:38 by Eclipse SUMO duarouter Version 1.21.0
<duarouterConfiguration xmlns:xsi="http://www.w3.org/2001/XMLSchema-instance" xsi:noNamespaceSchemaLocation="http://sumo.dlr.de/xsd/duarouterConfiguration.xsd">

    <input>
        <net-file value="C:\Users\salar\Sumo\2024-11-16-16-23-28\osm.net.xml.gz"/>
        <route-files value="C:\Users\salar\Sumo\2024-11-16-16-23-28\osm.bicycle.trips.xml"/>
    </input>

    <output>
        <output-file value="C:\Users\salar\Sumo\2024-11-16-16-23-28\osm.bicycle.trips.xml.tmp"/>
        <alternatives-output value="NUL"/>
        <write-trips value="true"/>
    </output>

    <processing>
        <remove-loops value="true"/>
    </processing>

    <time>
        <begin value="0.0"/>
        <end value="3600.0"/>
    </time>

    <report>
        <no-warnings value="true"/>
        <ignore-errors value="true"/>
        <no-step-log value="true"/>
    </report>

</duarouterConfiguration>
-->

<routes xmlns:xsi="http://www.w3.org/2001/XMLSchema-instance" xsi:noNamespaceSchemaLocation="http://sumo.dlr.de/xsd/routes_file.xsd">
    <vType id="bike_bicycle" vClass="bicycle"/>
    <trip id="bike0" type="bike_bicycle" depart="0.00" departLane="best" from="58692814#0" to="204400381#1"/>
    <trip id="bike1" type="bike_bicycle" depart="4.24" departLane="best" from="-678833733#4" to="-59232632#3"/>
    <trip id="bike2" type="bike_bicycle" depart="8.47" departLane="best" from="59232635#1" to="-58693574#3"/>
    <trip id="bike3" type="bike_bicycle" depart="12.71" departLane="best" from="693275168#4" to="526516416#0"/>
    <trip id="bike4" type="bike_bicycle" depart="16.94" departLane="best" from="-803684996#0" to="204400383#3"/>
    <trip id="bike5" type="bike_bicycle" depart="21.18" departLane="best" from="-59232251#0" to="-217838960#2"/>
    <trip id="bike6" type="bike_bicycle" depart="25.41" departLane="best" from="-204400381#4" to="58695005#0"/>
    <trip id="bike7" type="bike_bicycle" depart="29.65" departLane="best" from="58693242#2" to="270354714#1"/>
    <trip id="bike8" type="bike_bicycle" depart="33.89" departLane="best" from="-59232626" to="526516433#0"/>
    <trip id="bike9" type="bike_bicycle" depart="38.12" departLane="best" from="-678937275#0" to="-1042239612"/>
    <trip id="bike10" type="bike_bicycle" depart="42.36" departLane="best" from="678833739" to="-58693726#4"/>
    <trip id="bike12" type="bike_bicycle" depart="50.83" departLane="best" from="757520989#0" to="-688501967#0"/>
    <trip id="bike13" type="bike_bicycle" depart="55.07" departLane="best" from="-527563032#0" to="-527596140#0"/>
    <trip id="bike15" type="bike_bicycle" depart="63.54" departLane="best" from="678833742" to="59232624"/>
    <trip id="bike16" type="bike_bicycle" depart="67.77" departLane="best" from="265039629" to="797312238"/>
    <trip id="bike18" type="bike_bicycle" depart="76.24" departLane="best" from="681525550#1" to="536824689#0"/>
    <trip id="bike20" type="bike_bicycle" depart="84.72" departLane="best" from="677772432#12" to="263087914#1"/>
    <trip id="bike21" type="bike_bicycle" depart="88.95" departLane="best" from="-59256808#0" to="678937277"/>
    <trip id="bike24" type="bike_bicycle" depart="101.66" departLane="best" from="58692812#0" to="-693839662#1"/>
    <trip id="bike25" type="bike_bicycle" depart="105.90" departLane="best" from="-693883268#0" to="-58733431#0"/>
    <trip id="bike26" type="bike_bicycle" depart="110.13" departLane="best" from="-678833727#2" to="731250132#0"/>
    <trip id="bike27" type="bike_bicycle" depart="114.37" departLane="best" from="58692829#0" to="-535119935#2"/>
    <trip id="bike28" type="bike_bicycle" depart="118.60" departLane="best" from="-58693573#0" to="-59232623"/>
    <trip id="bike30" type="bike_bicycle" depart="127.07" departLane="best" from="909201403#0" to="58692812#4"/>
    <trip id="bike31" type="bike_bicycle" depart="131.31" departLane="best" from="484235173#4" to="58693718#4"/>
    <trip id="bike32" type="bike_bicycle" depart="135.55" departLane="best" from="-682021746" to="678826027#9"/>
    <trip id="bike33" type="bike_bicycle" depart="139.78" departLane="best" from="-59256808#3" to="204400387#5"/>
    <trip id="bike34" type="bike_bicycle" depart="144.02" departLane="best" from="682018066#1" to="-678833728#0"/>
    <trip id="bike35" type="bike_bicycle" depart="148.25" departLane="best" from="-58733436#1" to="734372607#0"/>
    <trip id="bike37" type="bike_bicycle" depart="156.73" departLane="best" from="-58693257#1" to="731250132#1"/>
    <trip id="bike39" type="bike_bicycle" depart="165.20" departLane="best" from="-678833723#2" to="-678826027#0"/>
    <trip id="bike40" type="bike_bicycle" depart="169.43" departLane="best" from="486560406#0" to="-678832754"/>
    <trip id="bike41" type="bike_bicycle" depart="173.67" departLane="best" from="526516426#2" to="693831770#1"/>
    <trip id="bike44" type="bike_bicycle" depart="186.38" departLane="best" from="-526516426#6" to="265038975#0"/>
    <trip id="bike45" type="bike_bicycle" depart="190.61" departLane="best" from="-535124150#0" to="-58516657#0"/>
    <trip id="bike46" type="bike_bicycle" depart="194.85" departLane="best" from="678833728#0" to="-803684996#1"/>
    <trip id="bike47" type="bike_bicycle" depart="199.08" departLane="best" from="-270354714#1" to="-723055739#0"/>
    <trip id="bike48" type="bike_bicycle" depart="203.32" departLane="best" from="909813230" to="265039016#0"/>
    <trip id="bike49" type="bike_bicycle" depart="207.56" departLane="best" from="790956708" to="686989864#1"/>
    <trip id="bike51" type="bike_bicycle" depart="216.03" departLane="best" from="58693718#3" to="265039626#1"/>
    <trip id="bike52" type="bike_bicycle" depart="220.26" departLane="best" from="-678833727#0" to="58692813#1"/>
    <trip id="bike53" type="bike_bicycle" depart="224.50" departLane="best" from="-536820657#1" to="-888531452"/>
    <trip id="bike56" type="bike_bicycle" depart="237.21" departLane="best" from="217838959#0" to="58693718#10"/>
    <trip id="bike58" type="bike_bicycle" depart="245.68" departLane="best" from="-679945379" to="58692812#2"/>
    <trip id="bike59" type="bike_bicycle" depart="249.91" departLane="best" from="535119935#9" to="-58693253"/>
    <trip id="bike60" type="bike_bicycle" depart="254.15" departLane="best" from="678299821#0" to="-265468917"/>
    <trip id="bike61" type="bike_bicycle" depart="258.38" departLane="best" from="678826880#1" to="265039016#3"/>
    <trip id="bike63" type="bike_bicycle" depart="266.86" departLane="best" from="-126392746#1" to="-724436770#2"/>
    <trip id="bike64" type="bike_bicycle" depart="271.09" departLane="best" from="689389878#0" to="681534119#0"/>
    <trip id="bike65" type="bike_bicycle" depart="275.33" departLane="best" from="-681534121#2" to="-265039629"/>
    <trip id="bike67" type="bike_bicycle" depart="283.80" departLane="best" from="-526516406#7" to="176333931#1"/>
    <trip id="bike68" type="bike_bicycle" depart="288.04" departLane="best" from="-485354906#0" to="678298997#2"/>
    <trip id="bike69" type="bike_bicycle" depart="292.27" departLane="best" from="-678299825#0" to="-58692810#2"/>
    <trip id="bike70" type="bike_bicycle" depart="296.51" departLane="best" from="682033887#2" to="32887506#3"/>
    <trip id="bike71" type="bike_bicycle" depart="300.74" departLane="best" from="-678833726#0" to="688501967#2"/>
    <trip id="bike72" type="bike_bicycle" depart="304.98" departLane="best" from="-803684996#2" to="-58733438"/>
    <trip id="bike73" type="bike_bicycle" depart="309.21" departLane="best" from="26801860#1" to="-59232626"/>
    <trip id="bike74" type="bike_bicycle" depart="313.45" departLane="best" from="-58695061#2" to="-681771931"/>
    <trip id="bike76" type="bike_bicycle" depart="321.92" departLane="best" from="952704777" to="527506011#1"/>
    <trip id="bike77" type="bike_bicycle" depart="326.16" departLane="best" from="-536824701" to="-59232633#0"/>
    <trip id="bike78" type="bike_bicycle" depart="330.39" departLane="best" from="-688501967#2" to="526516428#2"/>
    <trip id="bike79" type="bike_bicycle" depart="334.63" departLane="best" from="-596614567#0" to="-59232626"/>
    <trip id="bike80" type="bike_bicycle" depart="338.87" departLane="best" from="485354908#1" to="-58692810#1"/>
    <trip id="bike83" type="bike_bicycle" depart="351.57" departLane="best" from="-673175463#1" to="58693476#0"/>
    <trip id="bike84" type="bike_bicycle" depart="355.81" departLane="best" from="-58745983#1" to="-58692811#2"/>
    <trip id="bike85" type="bike_bicycle" depart="360.04" departLane="best" from="-730051776" to="-526516406#0"/>
    <trip id="bike86" type="bike_bicycle" depart="364.28" departLane="best" from="126392749#0" to="678830125#2"/>
    <trip id="bike87" type="bike_bicycle" depart="368.52" departLane="best" from="678833743" to="-58693724#1"/>
    <trip id="bike88" type="bike_bicycle" depart="372.75" departLane="best" from="-527596140#0" to="-836783618#0"/>
    <trip id="bike90" type="bike_bicycle" depart="381.22" departLane="best" from="59232629#1" to="-58693572#2"/>
    <trip id="bike91" type="bike_bicycle" depart="385.46" departLane="best" from="-836783610" to="527596146#1"/>
    <trip id="bike92" type="bike_bicycle" depart="389.70" departLane="best" from="-737428082#1" to="-688501967#6"/>
    <trip id="bike94" type="bike_bicycle" depart="398.17" departLane="best" from="58693724#0" to="10384750#1"/>
    <trip id="bike95" type="bike_bicycle" depart="402.40" departLane="best" from="-803684996#0" to="-678833735#2"/>
    <trip id="bike96" type="bike_bicycle" depart="406.64" departLane="best" from="-678826027#7" to="-724436735#0"/>
    <trip id="bike97" type="bike_bicycle" depart="410.87" departLane="best" from="1015918444#0" to="686989865"/>
    <trip id="bike98" type="bike_bicycle" depart="415.11" departLane="best" from="477729319#0" to="265039016#4"/>
    <trip id="bike99" type="bike_bicycle" depart="419.35" departLane="best" from="952704777" to="-681534129"/>
    <trip id="bike101" type="bike_bicycle" depart="427.82" departLane="best" from="682033887#14" to="58693476#1"/>
    <trip id="bike102" type="bike_bicycle" depart="432.05" departLane="best" from="176333955#1" to="58745983#1"/>
    <trip id="bike103" type="bike_bicycle" depart="436.29" departLane="best" from="-734372607#0" to="-265931326"/>
    <trip id="bike105" type="bike_bicycle" depart="444.76" departLane="best" from="-678833726#0" to="678830125#1"/>
    <trip id="bike107" type="bike_bicycle" depart="453.23" departLane="best" from="757520989#0" to="909203138"/>
    <trip id="bike108" type="bike_bicycle" depart="457.47" departLane="best" from="484235173#2" to="58733436#0"/>
    <trip id="bike109" type="bike_bicycle" depart="461.70" departLane="best" from="-58693257#1" to="679943666"/>
    <trip id="bike111" type="bike_bicycle" depart="470.18" departLane="best" from="-270354714#1" to="673175459#0"/>
    <trip id="bike112" type="bike_bicycle" depart="474.41" departLane="best" from="-265039628#1" to="526516422#9"/>
    <trip id="bike113" type="bike_bicycle" depart="478.65" departLane="best" from="217838960#2" to="26160220#7"/>
    <trip id="bike114" type="bike_bicycle" depart="482.88" departLane="best" from="-58693470#0" to="757520990#0"/>
    <trip id="bike115" type="bike_bicycle" depart="487.12" departLane="best" from="-526510185" to="-58693720#3"/>
    <trip id="bike116" type="bike_bicycle" depart="491.35" departLane="best" from="-527563033#3" to="58693574#0"/>
    <trip id="bike117" type="bike_bicycle" depart="495.59" departLane="best" from="-673175459#0" to="536824698"/>
    <trip id="bike118" type="bike_bicycle" depart="499.83" departLane="best" from="693275168#0" to="-678299832"/>
    <trip id="bike119" type="bike_bicycle" depart="504.06" departLane="best" from="527563033#1" to="536824689#2"/>
    <trip id="bike120" type="bike_bicycle" depart="508.30" departLane="best" from="-797312238" to="526516422#8"/>
    <trip id="bike121" type="bike_bicycle" depart="512.53" departLane="best" from="265038975#1" to="-730051774#1"/>
    <trip id="bike122" type="bike_bicycle" depart="516.77" departLane="best" from="-58733302#2" to="58733332#1"/>
    <trip id="bike123" type="bike_bicycle" depart="521.01" departLane="best" from="-676414420" to="731250132#1"/>
    <trip id="bike124" type="bike_bicycle" depart="525.24" departLane="best" from="-58693573#0" to="-680998587#2"/>
    <trip id="bike125" type="bike_bicycle" depart="529.48" departLane="best" from="-682019264" to="677772432#10"/>
    <trip id="bike126" type="bike_bicycle" depart="533.71" departLane="best" from="485354910" to="1118730696#0"/>
    <trip id="bike127" type="bike_bicycle" depart="537.95" departLane="best" from="933757831#0" to="-909813230"/>
    <trip id="bike128" type="bike_bicycle" depart="542.18" departLane="best" from="486617211#0" to="-58745983#0"/>
    <trip id="bike129" type="bike_bicycle" depart="546.42" departLane="best" from="-678833726#0" to="730032049#2"/>
    <trip id="bike130" type="bike_bicycle" depart="550.66" departLane="best" from="689892481" to="689389878#0"/>
    <trip id="bike131" type="bike_bicycle" depart="554.89" departLane="best" from="-693883267#0" to="-58693470#1"/>
    <trip id="bike132" type="bike_bicycle" depart="559.13" departLane="best" from="681534128#0" to="58695061#1"/>
    <trip id="bike133" type="bike_bicycle" depart="563.36" departLane="best" from="58516659#1" to="836783620"/>
    <trip id="bike135" type="bike_bicycle" depart="571.84" departLane="best" from="678939086#3" to="-680998587#1"/>
    <trip id="bike136" type="bike_bicycle" depart="576.07" departLane="best" from="58693474#0" to="734372602#2"/>
    <trip id="bike137" type="bike_bicycle" depart="580.31" departLane="best" from="58692811#7" to="536820660#4"/>
    <trip id="bike138" type="bike_bicycle" depart="584.54" departLane="best" from="535119935#2" to="-477729319#1"/>
    <trip id="bike140" type="bike_bicycle" depart="593.01" departLane="best" from="-58733438" to="58733302#10"/>
    <trip id="bike141" type="bike_bicycle" depart="597.25" departLane="best" from="58692811#6" to="-678833723#1"/>
    <trip id="bike143" type="bike_bicycle" depart="605.72" departLane="best" from="682033887#1" to="-526769106"/>
    <trip id="bike144" type="bike_bicycle" depart="609.96" departLane="best" from="-803684996#3" to="-678833734#2"/>
    <trip id="bike145" type="bike_bicycle" depart="614.19" departLane="best" from="-10380660#8" to="678826026#3"/>
    <trip id="bike146" type="bike_bicycle" depart="618.43" departLane="best" from="-58692812#3" to="-678832753#0"/>
    <trip id="bike147" type="bike_bicycle" depart="622.67" departLane="best" from="-652433438#0" to="32887506#7"/>
    <trip id="bike148" type="bike_bicycle" depart="626.90" departLane="best" from="834865201" to="1042241219"/>
    <trip id="bike150" type="bike_bicycle" depart="635.37" departLane="best" from="693839665#0" to="270354714#3"/>
    <trip id="bike151" type="bike_bicycle" depart="639.61" departLane="best" from="681534128#1" to="526516422#2"/>
    <trip id="bike152" type="bike_bicycle" depart="643.84" departLane="best" from="58692829#1" to="-58692810#0"/>
    <trip id="bike153" type="bike_bicycle" depart="648.08" departLane="best" from="-681534123" to="693834164#1"/>
    <trip id="bike154" type="bike_bicycle" depart="652.32" departLane="best" from="678833732#3" to="686989864#1"/>
    <trip id="bike155" type="bike_bicycle" depart="656.55" departLane="best" from="693834164#3" to="-58733431#4"/>
    <trip id="bike157" type="bike_bicycle" depart="665.02" departLane="best" from="678826882#0" to="691546160#1"/>
    <trip id="bike158" type="bike_bicycle" depart="669.26" departLane="best" from="-737481694" to="536824690"/>
    <trip id="bike159" type="bike_bicycle" depart="673.50" departLane="best" from="-58693256#1" to="724436771#1"/>
    <trip id="bike160" type="bike_bicycle" depart="677.73" departLane="best" from="-686989871#0" to="803684996#1"/>
    <trip id="bike161" type="bike_bicycle" depart="681.97" departLane="best" from="-678937275#2" to="689893655"/>
    <trip id="bike162" type="bike_bicycle" depart="686.20" departLane="best" from="-204400381#1" to="-673175463#1"/>
    <trip id="bike163" type="bike_bicycle" depart="690.44" departLane="best" from="-687681063#0" to="-724436795"/>
    <trip id="bike165" type="bike_bicycle" depart="698.91" departLane="best" from="-678937275#2" to="678833727#2"/>
    <trip id="bike166" type="bike_bicycle" depart="703.15" departLane="best" from="678833723#0" to="-535119935#8"/>
    <trip id="bike167" type="bike_bicycle" depart="707.38" departLane="best" from="688501967#2" to="686989510#2"/>
    <trip id="bike168" type="bike_bicycle" depart="711.62" departLane="best" from="-59232632#1" to="678939085"/>
    <trip id="bike169" type="bike_bicycle" depart="715.85" departLane="best" from="-1209562218" to="681534119#0"/>
    <trip id="bike170" type="bike_bicycle" depart="720.09" departLane="best" from="678833732#2" to="-59256808#0"/>
    <trip id="bike171" type="bike_bicycle" depart="724.33" departLane="best" from="-176333932" to="-58693726#0"/>
    <trip id="bike172" type="bike_bicycle" depart="728.56" departLane="best" from="-686989867" to="686989870"/>
    <trip id="bike173" type="bike_bicycle" depart="732.80" departLane="best" from="775067458" to="-678833735#3"/>
    <trip id="bike174" type="bike_bicycle" depart="737.03" departLane="best" from="-58692816#1" to="-734372606#0"/>
    <trip id="bike175" type="bike_bicycle" depart="741.27" departLane="best" from="834865115" to="265039415"/>
    <trip id="bike176" type="bike_bicycle" depart="745.50" departLane="best" from="-734372603#0" to="-536820660#4"/>
    <trip id="bike177" type="bike_bicycle" depart="749.74" departLane="best" from="-790956703" to="-58693718#11"/>
    <trip id="bike178" type="bike_bicycle" depart="753.98" departLane="best" from="757520990#11" to="678833726#1"/>
    <trip id="bike179" type="bike_bicycle" depart="758.21" departLane="best" from="535119935#8" to="-888531452"/>
    <trip id="bike180" type="bike_bicycle" depart="762.45" departLane="best" from="59232629#0" to="-682018065#1"/>
    <trip id="bike181" type="bike_bicycle" depart="766.68" departLane="best" from="535119935#1" to="26160220#4"/>
    <trip id="bike182" type="bike_bicycle" depart="770.92" departLane="best" from="-724436765#0" to="526516406#9"/>
    <trip id="bike183" type="bike_bicycle" depart="775.15" departLane="best" from="678826880#0" to="58700732#9"/>
    <trip id="bike185" type="bike_bicycle" depart="783.63" departLane="best" from="-265931328#3" to="58733436#2"/>
    <trip id="bike186" type="bike_bicycle" depart="787.86" departLane="best" from="-652433438#1" to="58693570#0"/>
    <trip id="bike188" type="bike_bicycle" depart="796.33" departLane="best" from="58693474#1" to="686989871#0"/>
    <trip id="bike189" type="bike_bicycle" depart="800.57" departLane="best" from="681771934" to="26160220#1"/>
    <trip id="bike190" type="bike_bicycle" depart="804.81" departLane="best" from="58745983#1" to="680998587#4"/>
    <trip id="bike191" type="bike_bicycle" depart="809.04" departLane="best" from="-681534128#0" to="-737494647"/>
    <trip id="bike192" type="bike_bicycle" depart="813.28" departLane="best" from="-737428082#0" to="678948400"/>
    <trip id="bike193" type="bike_bicycle" depart="817.51" departLane="best" from="-58516659#3" to="803684994"/>
    <trip id="bike194" type="bike_bicycle" depart="821.75" departLane="best" from="-734372604" to="58693716#0"/>
    <trip id="bike195" type="bike_bicycle" depart="825.98" departLane="best" from="693839662#1" to="536820658#0"/>
    <trip id="bike196" type="bike_bicycle" depart="830.22" departLane="best" from="-680998587#5" to="270354861"/>
    <trip id="bike197" type="bike_bicycle" depart="834.46" departLane="best" from="-1015933219" to="-678937275#3"/>
    <trip id="bike198" type="bike_bicycle" depart="838.69" departLane="best" from="-836783611" to="526516418#4"/>
    <trip id="bike199" type="bike_bicycle" depart="842.93" departLane="best" from="58693256#1" to="-1212816577#2"/>
    <trip id="bike200" type="bike_bicycle" depart="847.16" departLane="best" from="1015918443#0" to="58745983#1"/>
    <trip id="bike201" type="bike_bicycle" depart="851.40" departLane="best" from="126392752" to="693834164#7"/>
    <trip id="bike202" type="bike_bicycle" depart="855.64" departLane="best" from="678833732#3" to="-58693572#0"/>
    <trip id="bike203" type="bike_bicycle" depart="859.87" departLane="best" from="-526516406#4" to="26167049#0"/>
    <trip id="bike204" type="bike_bicycle" depart="864.11" departLane="best" from="-58692811#2" to="687681066#0"/>
    <trip id="bike205" type="bike_bicycle" depart="868.34" departLane="best" from="678939087#0" to="676414420"/>
    <trip id="bike206" type="bike_bicycle" depart="872.58" departLane="best" from="58693574#0" to="-59232633#0"/>
    <trip id="bike207" type="bike_bicycle" depart="876.81" departLane="best" from="-58695005#0" to="204400381#0"/>
    <trip id="bike208" type="bike_bicycle" depart="881.05" departLane="best" from="-678299826" to="1318233269#1"/>
    <trip id="bike209" type="bike_bicycle" depart="885.29" departLane="best" from="682033887#16" to="486617211#0"/>
    <trip id="bike210" type="bike_bicycle" depart="889.52" departLane="best" from="-775067459#1" to="-58516659#2"/>
    <trip id="bike211" type="bike_bicycle" depart="893.76" departLane="best" from="-58693726#2" to="-58693726#0"/>
    <trip id="bike212" type="bike_bicycle" depart="897.99" departLane="best" from="-204400383#3" to="-678299825#1"/>
    <trip id="bike213" type="bike_bicycle" depart="902.23" departLane="best" from="58693257#2" to="-1042239612"/>
    <trip id="bike214" type="bike_bicycle" depart="906.47" departLane="best" from="677772432#12" to="678826026#0"/>
    <trip id="bike215" type="bike_bicycle" depart="910.70" departLane="best" from="535119935#1" to="-805308598"/>
    <trip id="bike216" type="bike_bicycle" depart="914.94" departLane="best" from="58693716#2" to="757520989#1"/>
    <trip id="bike217" type="bike_bicycle" depart="919.17" departLane="best" from="262716546#0" to="265039016#3"/>
    <trip id="bike218" type="bike_bicycle" depart="923.41" departLane="best" from="-678826027#4" to="682033887#13"/>
    <trip id="bike220" type="bike_bicycle" depart="931.88" departLane="best" from="-58693476#2" to="836833340#1"/>
    <trip id="bike221" type="bike_bicycle" depart="936.12" departLane="best" from="527596140#0" to="737494641"/>
    <trip id="bike222" type="bike_bicycle" depart="940.35" departLane="best" from="693275168#3" to="535124151"/>
    <trip id="bike223" type="bike_bicycle" depart="944.59" departLane="best" from="58745983#0" to="-217838960#1"/>
    <trip id="bike224" type="bike_bicycle" depart="948.82" departLane="best" from="-681534119#0" to="270354861"/>
    <trip id="bike227" type="bike_bicycle" depart="961.53" departLane="best" from="-678826027#1" to="-58692811#8"/>
    <trip id="bike228" type="bike_bicycle" depart="965.77" departLane="best" from="678299825#0" to="263087914#0"/>
    <trip id="bike229" type="bike_bicycle" depart="970.00" departLane="best" from="-58516659#1" to="-678833733#3"/>
    <trip id="bike230" type="bike_bicycle" depart="974.24" departLane="best" from="-524948745#1" to="678937275#0"/>
    <trip id="bike231" type="bike_bicycle" depart="978.47" departLane="best" from="-678833732#2" to="-682033572#0"/>
    <trip id="bike232" type="bike_bicycle" depart="982.71" departLane="best" from="26801860#3" to="58692813#1"/>
    <trip id="bike233" type="bike_bicycle" depart="986.95" departLane="best" from="-652433438#0" to="58693724#2"/>
    <trip id="bike234" type="bike_bicycle" depart="991.18" departLane="best" from="58700732#9" to="270354714#3"/>
    <trip id="bike235" type="bike_bicycle" depart="995.42" departLane="best" from="-737481761" to="26801860#3"/>
    <trip id="bike237" type="bike_bicycle" depart="1003.89" departLane="best" from="-803684993" to="693840343"/>
    <trip id="bike238" type="bike_bicycle" depart="1008.12" departLane="best" from="-526516426#1" to="58693725"/>
    <trip id="bike239" type="bike_bicycle" depart="1012.36" departLane="best" from="686989509#2" to="678299822#1"/>
    <trip id="bike241" type="bike_bicycle" depart="1020.83" departLane="best" from="-691546702" to="677772432#14"/>
    <trip id="bike242" type="bike_bicycle" depart="1025.07" departLane="best" from="682034230#0" to="740097435#1"/>
    <trip id="bike243" type="bike_bicycle" depart="1029.30" departLane="best" from="-797312215#1" to="673175459#0"/>
    <trip id="bike245" type="bike_bicycle" depart="1037.78" departLane="best" from="-59232626" to="59232621#1"/>
    <trip id="bike247" type="bike_bicycle" depart="1046.25" departLane="best" from="-687681066#1" to="-58693716#3"/>
    <trip id="bike248" type="bike_bicycle" depart="1050.48" departLane="best" from="-737432504" to="-58693475#1"/>
    <trip id="bike250" type="bike_bicycle" depart="1058.95" departLane="best" from="539450287" to="204400381#5"/>
    <trip id="bike251" type="bike_bicycle" depart="1063.19" departLane="best" from="-730051775" to="487993881#0"/>
    <trip id="bike252" type="bike_bicycle" depart="1067.43" departLane="best" from="-204400381#5" to="58692815"/>
    <trip id="bike253" type="bike_bicycle" depart="1071.66" departLane="best" from="58692812#1" to="1212816576#1"/>
    <trip id="bike257" type="bike_bicycle" depart="1088.61" departLane="best" from="677772432#14" to="681534119#1"/>
    <trip id="bike258" type="bike_bicycle" depart="1092.84" departLane="best" from="678826029#0" to="526516406#12"/>
    <trip id="bike259" type="bike_bicycle" depart="1097.08" departLane="best" from="-126392746#1" to="265468927"/>
    <trip id="bike260" type="bike_bicycle" depart="1101.31" departLane="best" from="952704778" to="-691546160#6"/>
    <trip id="bike261" type="bike_bicycle" depart="1105.55" departLane="best" from="58693242#2" to="678826881#1"/>
    <trip id="bike262" type="bike_bicycle" depart="1109.78" departLane="best" from="58693242#6" to="677772432#3"/>
    <trip id="bike263" type="bike_bicycle" depart="1114.02" departLane="best" from="-737481761" to="-58695005#1"/>
    <trip id="bike264" type="bike_bicycle" depart="1118.26" departLane="best" from="-126392747" to="-58693249#1"/>
    <trip id="bike265" type="bike_bicycle" depart="1122.49" departLane="best" from="-536820657#1" to="58693476#1"/>
    <trip id="bike266" type="bike_bicycle" depart="1126.73" departLane="best" from="58700732#8" to="-59050500#3"/>
    <trip id="bike267" type="bike_bicycle" depart="1130.96" departLane="best" from="58695005#0" to="678299825#0"/>
    <trip id="bike269" type="bike_bicycle" depart="1139.44" departLane="best" from="673175463#1" to="-536820660#1"/>
    <trip id="bike270" type="bike_bicycle" depart="1143.67" departLane="best" from="678939087#2" to="757520990#7"/>
    <trip id="bike271" type="bike_bicycle" depart="1147.91" departLane="best" from="535119935#4" to="204400381#2"/>
    <trip id="bike272" type="bike_bicycle" depart="1152.14" departLane="best" from="681771931" to="58693716#0"/>
    <trip id="bike273" type="bike_bicycle" depart="1156.38" departLane="best" from="757520989#2" to="733186301"/>
    <trip id="bike274" type="bike_bicycle" depart="1160.61" departLane="best" from="58733431#0" to="-524926720#0"/>
    <trip id="bike275" type="bike_bicycle" depart="1164.85" departLane="best" from="58693724#0" to="546417939"/>
    <trip id="bike277" type="bike_bicycle" depart="1173.32" departLane="best" from="682033887#2" to="529602955"/>
    <trip id="bike278" type="bike_bicycle" depart="1177.56" departLane="best" from="536824701" to="836783610"/>
    <trip id="bike280" type="bike_bicycle" depart="1186.03" departLane="best" from="836722108" to="-693883268#1"/>
    <trip id="bike282" type="bike_bicycle" depart="1194.50" departLane="best" from="682033887#16" to="679945378#0"/>
    <trip id="bike284" type="bike_bicycle" depart="1202.97" departLane="best" from="-58692812#0" to="681162671"/>
    <trip id="bike285" type="bike_bicycle" depart="1207.21" departLane="best" from="58704861#0" to="909203138"/>
    <trip id="bike286" type="bike_bicycle" depart="1211.44" departLane="best" from="59232633#0" to="757520990#8"/>
    <trip id="bike287" type="bike_bicycle" depart="1215.68" departLane="best" from="-678833729#2" to="678833742"/>
    <trip id="bike288" type="bike_bicycle" depart="1219.92" departLane="best" from="-265931328#1" to="176333911#6"/>
    <trip id="bike289" type="bike_bicycle" depart="1224.15" departLane="best" from="-909201404" to="59232629#0"/>
    <trip id="bike290" type="bike_bicycle" depart="1228.39" departLane="best" from="-678833728#0" to="682033887#7"/>
    <trip id="bike291" type="bike_bicycle" depart="1232.62" departLane="best" from="-681534119#1" to="-526516406#9"/>
    <trip id="bike292" type="bike_bicycle" depart="1236.86" departLane="best" from="-730051773#0" to="-678299825#0"/>